pglib_opf_case20758_epigrids/dapi/pglib_opf_case20758_epigrids_10regions_dapi.m
% -------------------------------------------------------------------------
% Partitioned MATPOWER Case File
% Copyright (c) 2025 Milad Hasanzadeh
% Generated on: 2026-06-14
% This file contains partitioned data for 10 regions


% -------------------- mpc_regionR1 --------------------

mpc_regionR1.version = '2';
mpc_regionR1.baseMVA = 100.0000;
mpc_regionR1.bus = [
%	bus_i       type        Pd          Qd          Gs          Bs          area        Vm          Va          baseKV      zone        Vmax        Vmin        
	 1	 2	 0	 0	 0	 0	 10	 1	 0	 500	 1	 1.1	 0.9;
	 2	 2	 0	 0	 0	 0	 10	 1	 0	 345	 1	 1.1	 0.9;
	 3	 2	 0	 0	 0	 0	 10	 1	 0	 500	 1	 1.1	 0.9;
	 4	 2	 0	 0	 0	 0	 10	 1	 0	 345	 1	 1.1	 0.9;
	 5	 2	 0	 0	 0	 0	 10	 1	 0	 230	 1	 1.1	 0.9;
	 6	 2	 0	 0	 0	 0	 10	 1	 0	 138	 1	 1.1	 0.9;
	 7	 2	 0	 0	 0	 0	 10	 1	 0	 500	 1	 1.1	 0.9;
	 8	 2	 0	 0	 0	 0	 10	 1	 0	 500	 1	 1.1	 0.9;
	 9	 2	 0	 0	 0	 0	 10	 1	 0	 138	 1	 1.1	 0.9;
	 10	 2	 0	 0	 0	 0	 10	 1	 0	 230	 1	 1.1	 0.9;
	 11	 2	 0	 0	 0	 0	 10	 1	 0	 500	 1	 1.1	 0.9;
	 12	 1	 0	 0	 0	 49.27	 10	 1	 0	 500	 1	 1.1	 0.9;
	 13	 2	 0	 0	 0	 0	 10	 1	 0	 138	 1	 1.1	 0.9;
	 14	 2	 0	 0	 0	 0	 10	 1	 0	 138	 1	 1.1	 0.9;
	 15	 2	 0	 0	 0	 0	 10	 1	 0	 500	 1	 1.1	 0.9;
	 16	 2	 0	 0	 0	 0	 10	 1	 0	 138	 1	 1.1	 0.9;
	 17	 2	 0	 0	 0	 0	 10	 1	 0	 138	 1	 1.1	 0.9;
	 18	 2	 0	 0	 0	 0	 10	 1	 0	 138	 1	 1.1	 0.9;
	 19	 2	 0	 0	 0	 0	 10	 1	 0	 500	 1	 1.1	 0.9;
	 20	 2	 0	 0	 0	 0	 10	 1	 0	 138	 1	 1.1	 0.9;
	 21	 2	 0	 0	 0	 0	 10	 1	 0	 138	 1	 1.1	 0.9;
	 22	 2	 0	 0	 0	 0	 10	 1	 0	 230	 1	 1.1	 0.9;
	 23	 1	 0	 0	 0	 0	 10	 1	 0	 345	 1	 1.1	 0.9;
	 24	 2	 0	 0	 0	 0	 10	 1	 0	 138	 1	 1.1	 0.9;
	 25	 2	 0	 0	 0	 0	 10	 1	 0	 138	 1	 1.1	 0.9;
	 26	 2	 0	 0	 0	 0	 10	 1	 0	 69	 1	 1.1	 0.9;
	 27	 2	 0	 0	 0	 0	 10	 1	 0	 138	 1	 1.1	 0.9;
	 28	 1	 0	 0	 0	 0	 10	 1	 0	 345	 1	 1.1	 0.9;
	 29	 1	 0	 0	 0	 0	 10	 1	 0	 345	 1	 1.1	 0.9;
	 30	 2	 0	 0	 0	 0	 10	 1	 0	 138	 1	 1.1	 0.9;
	 31	 2	 0	 0	 0	 0	 10	 1	 0	 138	 1	 1.1	 0.9;
	 32	 2	 0	 0	 0	 0	 10	 1	 0	 138	 1	 1.1	 0.9;
	 33	 2	 0	 0	 0	 0	 10	 1	 0	 138	 1	 1.1	 0.9;
	 34	 2	 0	 0	 0	 0	 10	 1	 0	 138	 1	 1.1	 0.9;
	 35	 2	 0	 0	 0	 0	 10	 1	 0	 69	 1	 1.1	 0.9;
	 36	 1	 0	 0	 0	 10.11	 10	 1	 0	 345	 1	 1.1	 0.9;
	 37	 2	 0	 0	 0	 0	 10	 1	 0	 138	 1	 1.1	 0.9;
	 38	 2	 0	 0	 0	 0	 10	 1	 0	 138	 1	 1.1	 0.9;
	 39	 2	 0	 0	 0	 0	 10	 1	 0	 345	 1	 1.1	 0.9;
	 40	 1	 17.63	 2.18	 0	 0	 10	 1	 0	 69	 1	 1.1	 0.9;
	 41	 1	 0	 0	 0	 0	 10	 1	 0	 345	 1	 1.1	 0.9;
	 42	 1	 12.06	 1.5	 0	 0	 10	 1	 0	 69	 1	 1.1	 0.9;
	 43	 1	 14.18	 2.2	 0	 0	 10	 1	 0	 138	 1	 1.1	 0.9;
	 44	 1	 0	 0	 0	 0	 10	 1	 0	 138	 1	 1.1	 0.9;
	 45	 1	 13.14	 1.79	 0	 0	 10	 1	 0	 138	 1	 1.1	 0.9;
	 46	 1	 7.75	 0.89	 0	 0	 10	 1	 0	 69	 1	 1.1	 0.9;
	 47	 1	 5.93	 0.87	 0	 0	 10	 1	 0	 69	 1	 1.1	 0.9;
	 48	 1	 68.78	 16.94	 0	 0	 10	 1	 0	 138	 1	 1.1	 0.9;
	 49	 1	 0	 0	 0	 0	 10	 1	 0	 138	 1	 1.1	 0.9;
	 50	 1	 3.5	 0.57	 0	 0	 10	 1	 0	 69	 1	 1.1	 0.9;
	 51	 1	 5.19	 0.93	 0	 0	 10	 1	 0	 138	 1	 1.1	 0.9;
	 52	 1	 8.01	 1.52	 0	 0	 10	 1	 0	 69	 1	 1.1	 0.9;
	 53	 1	 3.79	 0.29	 0	 0	 10	 1	 0	 69	 1	 1.1	 0.9;
	 54	 1	 4.92	 1.01	 0	 0	 10	 1	 0	 69	 1	 1.1	 0.9;
	 55	 1	 13.77	 2.34	 0	 0	 10	 1	 0	 69	 1	 1.1	 0.9;
	 56	 1	 2.58	 0.5	 0	 0	 10	 1	 0	 69	 1	 1.1	 0.9;
	 57	 1	 4.72	 0.68	 0	 0	 10	 1	 0	 69	 1	 1.1	 0.9;
	 58	 1	 4.32	 0.44	 0	 0	 10	 1	 0	 69	 1	 1.1	 0.9;
	 59	 1	 0	 0	 0	 0	 10	 1	 0	 138	 1	 1.1	 0.9;
	 60	 1	 0	 0	 0	 0	 10	 1	 0	 138	 1	 1.1	 0.9;
	 61	 1	 9.49	 1.51	 0	 0	 10	 1	 0	 138	 1	 1.1	 0.9;
	 62	 1	 5.76	 0.59	 0	-82.32	 10	 1	 0	 230	 1	 1.1	 0.9;
	 63	 1	 4.4	 0	 0	 0	 10	 1	 0	 69	 1	 1.1	 0.9;
	 64	 1	 11.98	 2.12	 0	 20.02	 10	 1	 0	 230	 1	 1.1	 0.9;
	 65	 1	 0	 0	 0	 13.45	 10	 1	 0	 230	 1	 1.1	 0.9;
	 66	 1	 0	 0	 0	-131.92	 10	 1	 0	 230	 1	 1.1	 0.9;
	 67	 1	 13.63	 2.18	 0	 0	 10	 1	 0	 138	 1	 1.1	 0.9;
	 68	 1	 19.22	 4.02	 0	 0	 10	 1	 0	 138	 1	 1.1	 0.9;
	 69	 1	 19.22	-10.45	 0	 0	 10	 1	 0	 69	 1	 1.1	 0.9;
	 70	 1	 4.63	 0.51	 0	 0	 10	 1	 0	 69	 1	 1.1	 0.9;
	 71	 1	 0	 0	 0	 0	 10	 1	 0	 230	 1	 1.1	 0.9;
	 72	 1	 22.94	 4.2	 0	 0	 10	 1	 0	 69	 1	 1.1	 0.9;
	 73	 1	 21.79	 2.36	 0	 0	 10	 1	 0	 69	 1	 1.1	 0.9;
	 74	 1	 0	 0	 0	-26.08	 10	 1	 0	 345	 1	 1.1	 0.9;
	 75	 1	 2.01	 0.3	 0	 0	 10	 1	 0	 69	 1	 1.1	 0.9;
	 76	 1	 12.7	 2.44	 0	 0	 10	 1	 0	 69	 1	 1.1	 0.9;
	 77	 1	 2.81	 0	 0	 0	 10	 1	 0	 69	 1	 1.1	 0.9;
	 78	 1	 0	 0	 0	 0	 10	 1	 0	 138	 1	 1.1	 0.9;
	 79	 1	 5.15	 0.99	 0	 0	 10	 1	 0	 69	 1	 1.1	 0.9;
	 80	 1	 6.22	 1.14	 0	 0	 10	 1	 0	 69	 1	 1.1	 0.9;
	 81	 1	 73.97	 14.76	 0	 0	 10	 1	 0	 138	 1	 1.1	 0.9;
	 82	 1	 7.75	 0	 0	 0	 10	 1	 0	 69	 1	 1.1	 0.9;
	 83	 1	 6.26	 0	 0	 0	 10	 1	 0	 69	 1	 1.1	 0.9;
	 84	 1	 4.36	 0	 0	 0	 10	 1	 0	 69	 1	 1.1	 0.9;
	 85	 1	 5.31	 0	 0	 0	 10	 1	 0	 69	 1	 1.1	 0.9;
	 86	 1	 7.9	 0	 0	 0	 10	 1	 0	 69	 1	 1.1	 0.9;
	 87	 1	 9.35	 0	 0	 0	 10	 1	 0	 69	 1	 1.1	 0.9;
	 88	 1	 5.42	 0	 0	 0	 10	 1	 0	 69	 1	 1.1	 0.9;
	 89	 1	 7.87	 0	 0	 0	 10	 1	 0	 69	 1	 1.1	 0.9;
	 90	 1	 5.58	 0.42	 0	 0	 10	 1	 0	 69	 1	 1.1	 0.9;
	 91	 1	 9.27	 1.68	 0	 0	 10	 1	 0	 69	 1	 1.1	 0.9;
	 92	 1	 4.72	 0.68	 0	 0	 10	 1	 0	 69	 1	 1.1	 0.9;
	 93	 1	 9.25	 1.14	 0	 0	 10	 1	 0	 69	 1	 1.1	 0.9;
	 94	 1	 12.89	 1.64	 0	 0	 10	 1	 0	 138	 1	 1.1	 0.9;
	 95	 1	 0	 0	 0	 0	 10	 1	 0	 138	 1	 1.1	 0.9;
	 96	 1	 8.2	 1.53	 0	 0	 10	 1	 0	 69	 1	 1.1	 0.9;
	 97	 1	 3.99	-3.68	 0	 0	 10	 1	 0	 69	 1	 1.1	 0.9;
	 98	 1	 3.31	 0.7	 0	 0	 10	 1	 0	 69	 1	 1.1	 0.9;
	 99	 1	 0	 0	 0	 0	 10	 1	 0	 500	 1	 1.1	 0.9;
	 100	 1	 6.25	 1.17	 0	 0	 10	 1	 0	 69	 1	 1.1	 0.9;
	 101	 1	 28.64	 5.63	 0	 0	 10	 1	 0	 138	 1	 1.1	 0.9;
	 102	 1	 10.05	 1.23	 0	 0	 10	 1	 0	 69	 1	 1.1	 0.9;
	 103	 1	 6.64	 0.83	 0	 0	 10	 1	 0	 69	 1	 1.1	 0.9;
	 104	 1	 6.77	 0.67	 0	 0	 10	 1	 0	 69	 1	 1.1	 0.9;
	 105	 1	 0	 0	 0	 0	 10	 1	 0	 138	 1	 1.1	 0.9;
	 106	 1	 0	 0	 0	 0	 10	 1	 0	 138	 1	 1.1	 0.9;
	 107	 1	 12.99	 1.6	 0	 0	 10	 1	 0	 138	 1	 1.1	 0.9;
	 108	 1	 5.63	 0.86	 0	 0	 10	 1	 0	 69	 1	 1.1	 0.9;
	 109	 1	 8.02	 1.58	 0	 0	 10	 1	 0	 69	 1	 1.1	 0.9;
	 110	 1	 0	 0	 0	 0	 10	 1	 0	 138	 1	 1.1	 0.9;
	 111	 1	 6.06	 1.09	 0	 0	 10	 1	 0	 138	 1	 1.1	 0.9;
	 112	 1	 11.5	 1.24	 0	 0	 10	 1	 0	 138	 1	 1.1	 0.9;
	 113	 1	 27.56	 4.05	 0	 0	 10	 1	 0	 69	 1	 1.1	 0.9;
	 114	 1	 0	 0	 0	-38.17	 10	 1	 0	 230	 1	 1.1	 0.9;
	 115	 1	 5.17	 0.86	 0	 0	 10	 1	 0	 138	 1	 1.1	 0.9;
	 116	 1	 6.78	 1.03	 0	 0	 10	 1	 0	 69	 1	 1.1	 0.9;
	 117	 1	 23.99	 4.87	 0	 0	 10	 1	 0	 69	 1	 1.1	 0.9;
	 118	 1	 10.83	 1.79	 0	 0	 10	 1	 0	 69	 1	 1.1	 0.9;
	 119	 1	 0	 0	 0	 0	 10	 1	 0	 138	 1	 1.1	 0.9;
	 120	 1	 0	 0	 0	 0	 10	 1	 0	 138	 1	 1.1	 0.9;
	 121	 1	 64.29	 10.5	 0	 0	 10	 1	 0	 138	 1	 1.1	 0.9;
	 122	 1	 6.38	 1.34	 0	 0	 10	 1	 0	 69	 1	 1.1	 0.9;
	 123	 1	 18.09	 3.09	 0	 0	 10	 1	 0	 138	 1	 1.1	 0.9;
	 124	 1	 87.7	 19.63	 0	 0	 10	 1	 0	 138	 1	 1.1	 0.9;
	 125	 1	 0	 0	 0	 0	 10	 1	 0	 138	 1	 1.1	 0.9;
	 126	 1	 10.21	 1.92	 0	 0	 10	 1	 0	 69	 1	 1.1	 0.9;
	 127	 1	 10.99	 1.8	 0	 0	 10	 1	 0	 138	 1	 1.1	 0.9;
	 128	 1	 3.8	 0.73	 0	 0	 10	 1	 0	 69	 1	 1.1	 0.9;
	 129	 1	 31.62	 6.07	 0	 0	 10	 1	 0	 69	 1	 1.1	 0.9;
	 130	 1	 15.52	 2.43	 0	 0	 10	 1	 0	 69	 1	 1.1	 0.9;
	 131	 1	 6.86	 1.4	 0	 0	 10	 1	 0	 69	 1	 1.1	 0.9;
	 132	 1	 0	 0	 0	 0	 10	 1	 0	 138	 1	 1.1	 0.9;
	 133	 1	 0	 0	 0	 0	 10	 1	 0	 138	 1	 1.1	 0.9;
	 134	 1	 14.38	 1.67	 0	 0	 10	 1	 0	 69	 1	 1.1	 0.9;
	 135	 1	 11.99	 2.6	 0	 0	 10	 1	 0	 69	 1	 1.1	 0.9;
	 136	 1	 0	 0	 0	 0	 10	 1	 0	 138	 1	 1.1	 0.9;
	 137	 1	 17.42	 3.83	 0	 0	 10	 1	 0	 69	 1	 1.1	 0.9;
	 138	 1	 14.6	 2.08	 0	 0	 10	 1	 0	 69	 1	 1.1	 0.9;
	 139	 1	 7.94	 0.82	 0	 0	 10	 1	 0	 69	 1	 1.1	 0.9;
	 140	 1	 15.64	 3.07	 0	 0	 10	 1	 0	 69	 1	 1.1	 0.9;
	 141	 1	 71.44	 16.97	 0	 0	 10	 1	 0	 138	 1	 1.1	 0.9;
	 142	 1	 13.9	 2.79	 0	 0	 10	 1	 0	 69	 1	 1.1	 0.9;
	 143	 1	 15.23	 3.41	 0	 0	 10	 1	 0	 69	 1	 1.1	 0.9;
	 144	 1	 32.04	 5.76	 0	 0	 10	 1	 0	 69	 1	 1.1	 0.9;
	 145	 1	 4.16	 0.69	 0	 0	 10	 1	 0	 69	 1	 1.1	 0.9;
	 146	 1	 4.95	 0.44	 0	 0	 10	 1	 0	 138	 1	 1.1	 0.9;
	 147	 1	 53.34	 12.06	 0	 0	 10	 1	 0	 138	 1	 1.1	 0.9;
	 148	 1	 7.7	 1.01	 0	 0	 10	 1	 0	 138	 1	 1.1	 0.9;
	 149	 1	 0	 0	 0	 0	 10	 1	 0	 138	 1	 1.1	 0.9;
	 150	 1	 0	 0	 0	 0	 10	 1	 0	 138	 1	 1.1	 0.9;
	 151	 1	 4.95	 0.88	 0	 0	 10	 1	 0	 69	 1	 1.1	 0.9;
	 152	 1	 0	 0	 0	 0	 10	 1	 0	 138	 1	 1.1	 0.9;
	 153	 1	 6.97	 1.47	 0	 0	 10	 1	 0	 69	 1	 1.1	 0.9;
	 154	 1	 4.66	 0.8	 0	 0	 10	 1	 0	 69	 1	 1.1	 0.9;
	 155	 1	 0	 0	 0	 0	 10	 1	 0	 138	 1	 1.1	 0.9;
	 156	 1	 8.37	 0.84	 0	 0	 10	 1	 0	 69	 1	 1.1	 0.9;
	 157	 1	 7.09	 0.98	 0	 0	 10	 1	 0	 69	 1	 1.1	 0.9;
	 158	 1	 8.38	 0.79	 0	 0	 10	 1	 0	 69	 1	 1.1	 0.9;
	 159	 1	 0	 0	 0	 0	 10	 1	 0	 138	 1	 1.1	 0.9;
	 160	 1	 7.14	 1.44	 0	 0	 10	 1	 0	 69	 1	 1.1	 0.9;
	 161	 1	 5.8	 0.85	 0	 0	 10	 1	 0	 138	 1	 1.1	 0.9;
	 162	 1	 6.26	 0.52	 0	 0	 10	 1	 0	 138	 1	 1.1	 0.9;
	 163	 1	 4.72	 0.38	 0	 0	 10	 1	 0	 69	 1	 1.1	 0.9;
	 164	 1	 0	 0	 0	 0	 10	 1	 0	 138	 1	 1.1	 0.9;
	 165	 1	 0	 0	 0	 0	 10	 1	 0	 138	 1	 1.1	 0.9;
	 166	 1	 6.66	 0.98	 0	 0	 10	 1	 0	 69	 1	 1.1	 0.9;
	 167	 1	 4.42	 0.66	 0	 0	 10	 1	 0	 69	 1	 1.1	 0.9;
	 168	 1	 0	 0	 0	 0	 10	 1	 0	 138	 1	 1.1	 0.9;
	 169	 1	 0	 0	 0	 0	 10	 1	 0	 138	 1	 1.1	 0.9;
	 170	 1	 0	 0	 0	 0	 10	 1	 0	 138	 1	 1.1	 0.9;
	 171	 1	 0	 0	 0	 0	 10	 1	 0	 138	 1	 1.1	 0.9;
	 172	 1	 4.81	 0.79	 0	 0	 10	 1	 0	 69	 1	 1.1	 0.9;
	 173	 1	 8.38	 1.68	 0	 0	 10	 1	 0	 69	 1	 1.1	 0.9;
	 174	 1	 16.53	 2.46	 0	 0	 10	 1	 0	 69	 1	 1.1	 0.9;
	 175	 1	 0	 0	 0	 0	 10	 1	 0	 138	 1	 1.1	 0.9;
	 176	 1	 0	 0	 0	 0	 10	 1	 0	 138	 1	 1.1	 0.9;
	 177	 1	 0	 0	 0	 0	 10	 1	 0	 138	 1	 1.1	 0.9;
	 178	 1	 0	 0	 0	 0	 10	 1	 0	 138	 1	 1.1	 0.9;
	 179	 1	 5.03	 0.74	 0	 0	 10	 1	 0	 69	 1	 1.1	 0.9;
	 180	 1	 0	 0	 0	 0	 10	 1	 0	 138	 1	 1.1	 0.9;
	 181	 1	 0	 0	 0	 0	 10	 1	 0	 138	 1	 1.1	 0.9;
	 182	 1	 4.03	 0.7	 0	 0	 10	 1	 0	 69	 1	 1.1	 0.9;
	 183	 1	 3.29	 0.39	 0	 0	 10	 1	 0	 69	 1	 1.1	 0.9;
	 184	 1	 3.61	 0.61	 0	 0	 10	 1	 0	 69	 1	 1.1	 0.9;
	 185	 1	 0	 0	 0	 0	 10	 1	 0	 138	 1	 1.1	 0.9;
	 186	 1	 0	 0	 0	 0	 10	 1	 0	 138	 1	 1.1	 0.9;
	 187	 1	 10.8	 1.44	 0	 0	 10	 1	 0	 69	 1	 1.1	 0.9;
	 188	 1	 8.48	 1.64	 0	 0	 10	 1	 0	 138	 1	 1.1	 0.9;
	 189	 1	 4.06	 0.65	 0	 0	 10	 1	 0	 69	 1	 1.1	 0.9;
	 190	 1	 8.48	 1	 0	 0	 10	 1	 0	 69	 1	 1.1	 0.9;
	 191	 1	 8.75	 1.5	 0	 0	 10	 1	 0	 69	 1	 1.1	 0.9;
	 192	 1	 0	 0	 0	 0	 10	 1	 0	 138	 1	 1.1	 0.9;
	 193	 1	 8.54	 1.43	 0	 0	 10	 1	 0	 69	 1	 1.1	 0.9;
	 194	 1	 0	 0	 0	 0	 10	 1	 0	 138	 1	 1.1	 0.9;
	 195	 1	 7.05	 1.22	 0	 0	 10	 1	 0	 69	 1	 1.1	 0.9;
	 196	 1	 6.67	 1.26	 0	 0	 10	 1	 0	 138	 1	 1.1	 0.9;
	 197	 1	 8.91	 0.88	 0	 0	 10	 1	 0	 69	 1	 1.1	 0.9;
	 198	 1	 5.18	 0.8	 0	 0	 10	 1	 0	 69	 1	 1.1	 0.9;
	 199	 1	 0	 0	 0	 0	 10	 1	 0	 138	 1	 1.1	 0.9;
	 200	 1	 0	 0	 0	 0	 10	 1	 0	 138	 1	 1.1	 0.9;
...
];

mpc_regionR1.gen = [
%	bus         Pg          Qg          Qmax        Qmin        Vg          mBase       status      Pmax        Pmin        Pc1         Pc2         Qc1min      Qc1max      Qc2min      Qc2max      ramp_agc    ramp_10     ramp_30     ramp_q      apf         
	 1	 0	 0	 61	-61	 1	 100	 0	 122	 0	 0	 0	 0	 0	 0	 0	 0	 0	 0	 0	 50;
	 1	 102.5	 0	 103	-103	 1	 100	 1	 205	 0	 0	 0	 0	 0	 0	 0	 0	 0	 0	 0	 240.56;
	 1	 272.5	 0	 273	-273	 1	 100	 1	 545	 0	 0	 0	 0	 0	 0	 0	 0	 0	 0	 0	 240.56;
	 1	 236.5	 0	 237	-237	 1	 100	 1	 473	 0	 0	 0	 0	 0	 0	 0	 0	 0	 0	 0	 240.56;
	 1	 97.5	 0	 98	-98	 1	 100	 1	 195	 0	 0	 0	 0	 0	 0	 0	 0	 0	 0	 0	 240.56;
	 1	 121.5	 0	 122	-122	 1	 100	 1	 243	 0	 0	 0	 0	 0	 0	 0	 0	 0	 0	 0	 240.56;
	 1	 94	 0	 94	-94	 1	 100	 1	 188	 0	 0	 0	 0	 0	 0	 0	 0	 0	 0	 0	 240.56;
	 1	 227.5	 0	 228	-228	 1	 100	 1	 455	 0	 0	 0	 0	 0	 0	 0	 0	 0	 0	 0	 240.56;
	 1	 139.5	 0	 140	-140	 1	 100	 1	 279	 0	 0	 0	 0	 0	 0	 0	 0	 0	 0	 0	 240.56;
	 1	 114.5	 0	 115	-115	 1	 100	 1	 229	 0	 0	 0	 0	 0	 0	 0	 0	 0	 0	 0	 240.56;
	 1	 224.5	 0	 225	-225	 1	 100	 1	 449	 0	 0	 0	 0	 0	 0	 0	 0	 0	 0	 0	 240.56;
	 1	 0	 0	 154	-154	 1	 100	 0	 307	 0	 0	 0	 0	 0	 0	 0	 0	 0	 0	 0	 50;
	 1	 126	 0	 126	-126	 1	 100	 1	 252	 0	 0	 0	 0	 0	 0	 0	 0	 0	 0	 0	 240.56;
	 1	 294.5	 0	 295	-295	 1	 100	 1	 589	 0	 0	 0	 0	 0	 0	 0	 0	 0	 0	 0	 240.56;
	 1	 95.5	 0	 96	-96	 1	 100	 1	 191	 0	 0	 0	 0	 0	 0	 0	 0	 0	 0	 0	 240.56;
	 1	 99.5	 0	 100	-100	 1	 100	 1	 199	 0	 0	 0	 0	 0	 0	 0	 0	 0	 0	 0	 240.56;
	 1	 129.5	 0	 130	-130	 1	 100	 1	 259	 0	 0	 0	 0	 0	 0	 0	 0	 0	 0	 0	 240.56;
	 1	 298	 0	 298	-298	 1	 100	 1	 596	 0	 0	 0	 0	 0	 0	 0	 0	 0	 0	 0	 240.56;
	 1	 124	 0	 124	-124	 1	 100	 1	 248	 0	 0	 0	 0	 0	 0	 0	 0	 0	 0	 0	 240.56;
	 1	 113.5	 0	 114	-114	 1	 100	 1	 227	 0	 0	 0	 0	 0	 0	 0	 0	 0	 0	 0	 240.56;
	 1	 148.5	 0	 149	-149	 1	 100	 1	 297	 0	 0	 0	 0	 0	 0	 0	 0	 0	 0	 0	 240.56;
	 1	 142	 0	 142	-142	 1	 100	 1	 284	 0	 0	 0	 0	 0	 0	 0	 0	 0	 0	 0	 240.56;
	 1	 0	 0	 26	-26	 1	 100	 0	 51	 0	 0	 0	 0	 0	 0	 0	 0	 0	 0	 0	 53.5;
	 1	 94.5	 0	 95	-95	 1	 100	 1	 189	 0	 0	 0	 0	 0	 0	 0	 0	 0	 0	 0	 240.56;
	 1	 122.5	 0	 123	-123	 1	 100	 1	 245	 0	 0	 0	 0	 0	 0	 0	 0	 0	 0	 0	 240.56;
	 1	 214.5	 0	 215	-215	 1	 100	 1	 429	 0	 0	 0	 0	 0	 0	 0	 0	 0	 0	 0	 240.56;
	 1	 137	 0	 137	-137	 1	 100	 1	 274	 0	 0	 0	 0	 0	 0	 0	 0	 0	 0	 0	 240.56;
	 1	 0	 0	 4	-4	 1	 100	 0	 7	 0	 0	 0	 0	 0	 0	 0	 0	 0	 0	 0	 125;
	 1	 0	 0	 9	-9	 1	 100	 0	 17	 0	 0	 0	 0	 0	 0	 0	 0	 0	 0	 0	 125;
	 1	 0	 0	 137	-137	 1	 100	 0	 273	 0	 0	 0	 0	 0	 0	 0	 0	 0	 0	 0	 125;
	 1	 0	 0	 9	-9	 1	 100	 0	 18	 0	 0	 0	 0	 0	 0	 0	 0	 0	 0	 0	 125;
	 1	 0	 0	 9	-9	 1	 100	 0	 17	 0	 0	 0	 0	 0	 0	 0	 0	 0	 0	 0	 125;
	 1	 0	 0	 9	-9	 1	 100	 0	 18	 0	 0	 0	 0	 0	 0	 0	 0	 0	 0	 0	 125;
	 1	 0	 0	 4	-4	 1	 100	 0	 7	 0	 0	 0	 0	 0	 0	 0	 0	 0	 0	 0	 53.5;
	 1	 0	 0	 122	-122	 1	 100	 0	 244	 0	 0	 0	 0	 0	 0	 0	 0	 0	 0	 0	 125;
	 1	 0	 0	 30	-30	 1	 100	 0	 59	 0	 0	 0	 0	 0	 0	 0	 0	 0	 0	 0	 125;
	 1	 0	 0	 15	-15	 1	 100	 0	 29	 0	 0	 0	 0	 0	 0	 0	 0	 0	 0	 0	 125;
	 1	 0	 0	 276	-276	 1	 100	 0	 552	 0	 0	 0	 0	 0	 0	 0	 0	 0	 0	 0	 125;
	 1	 0	 0	 48	-48	 1	 100	 0	 95	 0	 0	 0	 0	 0	 0	 0	 0	 0	 0	 0	 125;
	 1	 0	 0	 66	-66	 1	 100	 0	 132	 0	 0	 0	 0	 0	 0	 0	 0	 0	 0	 0	 125;
	 1	 0	 0	 77	-77	 1	 100	 0	 153	 0	 0	 0	 0	 0	 0	 0	 0	 0	 0	 0	 125;
	 1	 0	 0	 15	-15	 1	 100	 0	 29	 0	 0	 0	 0	 0	 0	 0	 0	 0	 0	 0	 125;
	 1	 0	 0	 69	-69	 1	 100	 0	 138	 0	 0	 0	 0	 0	 0	 0	 0	 0	 0	 0	 125;
	 1	 0	 0	 38	-38	 1	 100	 0	 76	 0	 0	 0	 0	 0	 0	 0	 0	 0	 0	 0	 125;
	 1	 0	 0	 88	-88	 1	 100	 0	 175	 0	 0	 0	 0	 0	 0	 0	 0	 0	 0	 0	 53.5;
	 1	 0	 0	 3	-3	 1	 100	 0	 5	 0	 0	 0	 0	 0	 0	 0	 0	 0	 0	 0	 125;
	 1	 0	 0	 69	-69	 1	 100	 0	 137	 0	 0	 0	 0	 0	 0	 0	 0	 0	 0	 0	 125;
	 1	 167.5	 0	 168	-168	 1	 100	 1	 335	 0	 0	 0	 0	 0	 0	 0	 0	 0	 0	 0	 600;
	 1	 127.5	 0	 128	-128	 1	 100	 1	 255	 0	 0	 0	 0	 0	 0	 0	 0	 0	 0	 0	 600;
	 1	 424.5	 0	 425	-425	 1	 100	 1	 849	 0	 0	 0	 0	 0	 0	 0	 0	 0	 0	 0	 600;
	 1	 122	 0	 163.5	-163.5	 1	 100	 1	 244	 0	 0	 0	 0	 0	 0	 0	 0	 0	 0	 0	 805;
	 1	 250.5	 0	 251	-251	 1	 100	 1	 501	 0	 0	 0	 0	 0	 0	 0	 0	 0	 0	 0	 805;
	 1	 358	 0	 358	-358	 1	 100	 1	 716	 0	 0	 0	 0	 0	 0	 0	 0	 0	 0	 0	 805;
	 1	 0	 0	 4	-4	 1	 100	 0	 7	 0	 0	 0	 0	 0	 0	 0	 0	 0	 0	 0	 53.5;
	 1	 104	 0	 104	-104	 1	 100	 1	 208	 0	 0	 0	 0	 0	 0	 0	 0	 0	 0	 0	 240.56;
	 1	 139	 0	 139	-139	 1	 100	 1	 278	 0	 0	 0	 0	 0	 0	 0	 0	 0	 0	 0	 240.56;
	 1	 163.5	 0	 164	-164	 1	 100	 1	 327	 0	 0	 0	 0	 0	 0	 0	 0	 0	 0	 0	 240.56;
	 2	 228	 0	 273.5	-273.5	 1	 100	 1	 396	 60	 0	 0	 0	 0	 0	 0	 0	 0	 0	 0	 0;
	 3	 251.2	 0	 244	-244	 1	 100	 1	 488	 14.4	 0	 0	 0	 0	 0	 0	 0	 0	 0	 0	 60.5;
	 3	 251.7	 0	 245	-245	 1	 100	 1	 489	 14.4	 0	 0	 0	 0	 0	 0	 0	 0	 0	 0	 60.5;
	 3	 278.7	 0	 272	-272	 1	 100	 1	 543	 14.4	 0	 0	 0	 0	 0	 0	 0	 0	 0	 0	 60.5;
	 3	 308.2	 0	 301	-301	 1	 100	 1	 602	 14.4	 0	 0	 0	 0	 0	 0	 0	 0	 0	 0	 60.5;
	 3	 422	 0	 360	-360	 1	 100	 1	 719	 125	 0	 0	 0	 0	 0	 0	 0	 0	 0	 0	 729.9;
	 3	 706.75	 0	 648	-648	 1	 100	 1	 1296	 117.5	 0	 0	 0	 0	 0	 0	 0	 0	 0	 0	 729.9;
	 3	 282.6	 0	 272	-272	 1	 100	 1	 544	 21.2	 0	 0	 0	 0	 0	 0	 0	 0	 0	 0	 80;
	 4	 235.5	 0	 211	-211	 1	 100	 1	 421	 50	 0	 0	 0	 0	 0	 0	 0	 0	 0	 0	 230;
	 4	 185	 0	 160	-160	 1	 100	 1	 320	 50	 0	 0	 0	 0	 0	 0	 0	 0	 0	 0	 234;
	 4	 189	 0	 164	-164	 1	 100	 1	 328	 50	 0	 0	 0	 0	 0	 0	 0	 0	 0	 0	 234;
	 5	 173.75	 0	 151.2	-151.2	 1	 100	 1	 300	 47.5	 0	 0	 0	 0	 0	 0	 0	 0	 0	 0	 192;
	 5	 183.75	 0	 168	-168	 1	 100	 1	 335	 32.5	 0	 0	 0	 0	 0	 0	 0	 0	 0	 0	 126.3;
	 6	 130	 1.75	 108.5	-105	 1	 100	 1	 210	 50	 0	 0	 0	 0	 0	 0	 0	 0	 0	 0	 175;
	 6	 204	 0	 179	-179	 1	 100	 1	 358	 50	 0	 0	 0	 0	 0	 0	 0	 0	 0	 0	 175;
	 6	 227.5	 0	 203	-203	 1	 100	 1	 405	 50	 0	 0	 0	 0	 0	 0	 0	 0	 0	 0	 300;
	 7	 151.75	 0	 143	-143	 1	 100	 1	 286	 17.5	 0	 0	 0	 0	 0	 0	 0	 0	 0	 0	 114;
	 7	 199.75	 0	 191	-191	 1	 100	 1	 382	 17.5	 0	 0	 0	 0	 0	 0	 0	 0	 0	 0	 125.4;
	 7	 151.25	 0	 143	-143	 1	 100	 1	 285	 17.5	 0	 0	 0	 0	 0	 0	 0	 0	 0	 0	 125.4;
	 7	 190.25	 0	 182	-182	 1	 100	 1	 363	 17.5	 0	 0	 0	 0	 0	 0	 0	 0	 0	 0	 114;
	 7	 143.75	 0	 135	-135	 1	 100	 1	 270	 17.5	 0	 0	 0	 0	 0	 0	 0	 0	 0	 0	 114;
	 7	 143.75	 0	 135	-135	 1	 100	 1	 270	 17.5	 0	 0	 0	 0	 0	 0	 0	 0	 0	 0	 114;
	 7	 170.25	 0	 162	-162	 1	 100	 1	 323	 17.5	 0	 0	 0	 0	 0	 0	 0	 0	 0	 0	 114;
	 7	 144.75	 0	 136	-136	 1	 100	 1	 272	 17.5	 0	 0	 0	 0	 0	 0	 0	 0	 0	 0	 114;
	 7	 455.75	 0	 447	-447	 1	 100	 1	 894	 17.5	 0	 0	 0	 0	 0	 0	 0	 0	 0	 0	 114;
	 7	 271.75	 0	 263	-263	 1	 100	 1	 526	 17.5	 0	 0	 0	 0	 0	 0	 0	 0	 0	 0	 125.4;
	 7	 162.75	 0	 154	-154	 1	 100	 1	 308	 17.5	 0	 0	 0	 0	 0	 0	 0	 0	 0	 0	 125.4;
	 8	 509	 0	 509	-509	 1	 100	 1	 1018	 0	 0	 0	 0	 0	 0	 0	 0	 0	 0	 0	 112.5;
	 8	 554.5	 0	 555	-555	 1	 100	 1	 1109	 0	 0	 0	 0	 0	 0	 0	 0	 0	 0	 0	 112.5;
	 8	 509	 0	 509	-509	 1	 100	 1	 1018	 0	 0	 0	 0	 0	 0	 0	 0	 0	 0	 0	 112.5;
	 8	 509	 0	 509	-509	 1	 100	 1	 1018	 0	 0	 0	 0	 0	 0	 0	 0	 0	 0	 0	 112.5;
	 9	 106.14	 0	 86	-86	 1	 100	 1	 172	 40.28	 0	 0	 0	 0	 0	 0	 0	 0	 0	 0	 100.7;
	 10	 45.25	 0	 61.2	-61.2	 1	 100	 1	 73	 17.5	 0	 0	 0	 0	 0	 0	 0	 0	 0	 0	 95.9;
	 10	 33.25	 0	 61.2	-61.2	 1	 100	 1	 49	 17.5	 0	 0	 0	 0	 0	 0	 0	 0	 0	 0	 95.9;
	 10	 26.5	 0	 60	-60	 1	 100	 1	 38	 15	 0	 0	 0	 0	 0	 0	 0	 0	 0	 0	 93.7;
	 11	 65	 0	 53	-53	 1	 100	 1	 105	 25	 0	 0	 0	 0	 0	 0	 0	 0	 0	 0	 95;
	 11	 44.5	 0	 32.1	-32.1	 1	 100	 1	 64	 25	 0	 0	 0	 0	 0	 0	 0	 0	 0	 0	 97.8;
	 11	 118.5	 0	 106	-106	 1	 100	 1	 212	 25	 0	 0	 0	 0	 0	 0	 0	 0	 0	 0	 95;
	 11	 109.5	 0	 97	-97	 1	 100	 1	 194	 25	 0	 0	 0	 0	 0	 0	 0	 0	 0	 0	 95;
	 11	 115	 0	 103	-103	 1	 100	 1	 205	 25	 0	 0	 0	 0	 0	 0	 0	 0	 0	 0	 95;
	 11	 131.5	 0	 119	-119	 1	 100	 1	 238	 25	 0	 0	 0	 0	 0	 0	 0	 0	 0	 0	 95;
	 11	 38	 0	 31.2	-31.2	 1	 100	 1	 51	 25	 0	 0	 0	 0	 0	 0	 0	 0	 0	 0	 95;
	 11	 68	 0	 56	-56	 1	 100	 1	 111	 25	 0	 0	 0	 0	 0	 0	 0	 0	 0	 0	 95;
	 11	 74	 0	 62	-62	 1	 100	 1	 123	 25	 0	 0	 0	 0	 0	 0	 0	 0	 0	 0	 95;
	 11	 68	 0	 56	-56	 1	 100	 1	 111	 25	 0	 0	 0	 0	 0	 0	 0	 0	 0	 0	 97.8;
	 13	 76.5	 0	 59	-59	 1	 100	 1	 117	 36	 0	 0	 0	 0	 0	 0	 0	 0	 0	 0	 90;
	 14	 92.75	 0	 92	-92	 1	 100	 1	 183	 2.5	 0	 0	 0	 0	 0	 0	 0	 0	 0	 0	 88.9;
	 14	 302.75	 0	 302	-302	 1	 100	 1	 603	 2.5	 0	 0	 0	 0	 0	 0	 0	 0	 0	 0	 88.9;
	 15	 113.25	 0	 90	-90	 1	 100	 1	 179	 47.5	 0	 0	 0	 0	 0	 0	 0	 0	 0	 0	 95;
	 15	 157.75	 0	 134	-134	 1	 100	 1	 268	 47.5	 0	 0	 0	 0	 0	 0	 0	 0	 0	 0	 95;
	 15	 88.25	 0	 65	-65	 1	 100	 1	 129	 47.5	 0	 0	 0	 0	 0	 0	 0	 0	 0	 0	 95;
	 15	 113.4	 0	 102	-102	 1	 100	 1	 203	 23.8	 0	 0	 0	 0	 0	 0	 0	 0	 0	 0	 88.2;
	 15	 37.4	 0	 29	-29	 1	 100	 1	 51	 23.8	 0	 0	 0	 0	 0	 0	 0	 0	 0	 0	 88.2;
	 15	 84.9	 0	 73	-73	 1	 100	 1	 146	 23.8	 0	 0	 0	 0	 0	 0	 0	 0	 0	 0	 88.2;
	 15	 110.4	 0	 99	-99	 1	 100	 1	 197	 23.8	 0	 0	 0	 0	 0	 0	 0	 0	 0	 0	 88.2;
	 15	 41.9	 0	 30	-30	 1	 100	 1	 60	 23.8	 0	 0	 0	 0	 0	 0	 0	 0	 0	 0	 88.2;
	 15	 101.9	 0	 90	-90	 1	 100	 1	 180	 23.8	 0	 0	 0	 0	 0	 0	 0	 0	 0	 0	 88.2;
	 15	 64.4	 0	 53	-53	 1	 100	 1	 105	 23.8	 0	 0	 0	 0	 0	 0	 0	 0	 0	 0	 88.2;
	 15	 102.9	 0	 91	-91	 1	 100	 1	 182	 23.8	 0	 0	 0	 0	 0	 0	 0	 0	 0	 0	 88.2;
	 15	 137.25	 0	 114	-114	 1	 100	 1	 227	 47.5	 0	 0	 0	 0	 0	 0	 0	 0	 0	 0	 95;
	 15	 45.4	 0	 34	-34	 1	 100	 1	 67	 23.8	 0	 0	 0	 0	 0	 0	 0	 0	 0	 0	 88.2;
	 15	 35.9	 0	 29	-29	 1	 100	 1	 48	 23.8	 0	 0	 0	 0	 0	 0	 0	 0	 0	 0	 88.2;
	 15	 84.9	 0	 73	-73	 1	 100	 1	 146	 23.8	 0	 0	 0	 0	 0	 0	 0	 0	 0	 0	 88.2;
	 15	 35.9	 0	 29	-29	 1	 100	 1	 48	 23.8	 0	 0	 0	 0	 0	 0	 0	 0	 0	 0	 88.2;
	 15	 116.4	 0	 105	-105	 1	 100	 1	 209	 23.8	 0	 0	 0	 0	 0	 0	 0	 0	 0	 0	 88.2;
	 15	 51.9	 0	 40	-40	 1	 100	 1	 80	 23.8	 0	 0	 0	 0	 0	 0	 0	 0	 0	 0	 88.2;
	 15	 107.9	 0	 96	-96	 1	 100	 1	 192	 23.8	 0	 0	 0	 0	 0	 0	 0	 0	 0	 0	 88.2;
	 15	 46.4	 0	 35	-35	 1	 100	 1	 69	 23.8	 0	 0	 0	 0	 0	 0	 0	 0	 0	 0	 88.2;
	 15	 88.75	 0	 65	-65	 1	 100	 1	 130	 47.5	 0	 0	 0	 0	 0	 0	 0	 0	 0	 0	 95;
	 15	 150.25	 0	 127	-127	 1	 100	 1	 253	 47.5	 0	 0	 0	 0	 0	 0	 0	 0	 0	 0	 95;
	 15	 130.75	 0	 107	-107	 1	 100	 1	 214	 47.5	 0	 0	 0	 0	 0	 0	 0	 0	 0	 0	 95;
	 15	 93.25	 0	 70	-70	 1	 100	 1	 139	 47.5	 0	 0	 0	 0	 0	 0	 0	 0	 0	 0	 95;
	 15	 130.25	 0	 107	-107	 1	 100	 1	 213	 47.5	 0	 0	 0	 0	 0	 0	 0	 0	 0	 0	 95;
	 15	 210.75	 0	 187	-187	 1	 100	 1	 374	 47.5	 0	 0	 0	 0	 0	 0	 0	 0	 0	 0	 95;
	 15	 137.25	 0	 114	-114	 1	 100	 1	 227	 47.5	 0	 0	 0	 0	 0	 0	 0	 0	 0	 0	 95;
	 16	 20.5	 1.15	 18.3	-16	 1	 100	 1	 31	 10	 0	 0	 0	 0	 0	 0	 0	 0	 0	 0	 37.7;
	 16	 67.5	 0	 55	-55	 1	 100	 1	 110	 25	 0	 0	 0	 0	 0	 0	 0	 0	 0	 0	 87.8;
	 17	 10.25	 6.4	 41	-28.2	 1	 100	 1	 18	 2.5	 0	 0	 0	 0	 0	 0	 0	 0	 0	 0	 84.6;
	 17	 10.25	 6.4	 41	-28.2	 1	 100	 1	 18	 2.5	 0	 0	 0	 0	 0	 0	 0	 0	 0	 0	 84.6;
	 18	 22	 0	 25.2	-25.2	 1	 100	 1	 43	 1	 0	 0	 0	 0	 0	 0	 0	 0	 0	 0	 80.8;
	 19	 59.75	 0	 46	-46	 1	 100	 1	 92	 27.5	 0	 0	 0	 0	 0	 0	 0	 0	 0	 0	 77.4;
	 19	 46.25	 0	 38.4	-38.4	 1	 100	 1	 65	 27.5	 0	 0	 0	 0	 0	 0	 0	 0	 0	 0	 77.4;
	 19	 121.25	 0	 108	-108	 1	 100	 1	 215	 27.5	 0	 0	 0	 0	 0	 0	 0	 0	 0	 0	 77.4;
	 19	 108.75	 0	 95	-95	 1	 100	 1	 190	 27.5	 0	 0	 0	 0	 0	 0	 0	 0	 0	 0	 77.4;
	 19	 52.75	 0	 39	-39	 1	 100	 1	 78	 27.5	 0	 0	 0	 0	 0	 0	 0	 0	 0	 0	 77.4;
	 19	 101.75	 0	 88	-88	 1	 100	 1	 176	 27.5	 0	 0	 0	 0	 0	 0	 0	 0	 0	 0	 77.4;
	 19	 53.75	 0	 40	-40	 1	 100	 1	 80	 27.5	 0	 0	 0	 0	 0	 0	 0	 0	 0	 0	 77.4;
	 19	 81.25	 0	 68	-68	 1	 100	 1	 135	 27.5	 0	 0	 0	 0	 0	 0	 0	 0	 0	 0	 77.4;
	 19	 81.75	 0	 68	-68	 1	 100	 1	 136	 27.5	 0	 0	 0	 0	 0	 0	 0	 0	 0	 0	 77.4;
	 19	 43.25	 0	 38.4	-38.4	 1	 100	 1	 59	 27.5	 0	 0	 0	 0	 0	 0	 0	 0	 0	 0	 77.4;
	 20	 19	 0	 17	-17	 1	 100	 1	 34	 4	 0	 0	 0	 0	 0	 0	 0	 0	 0	 0	 40;
	 20	 6.1	 0	 6	-6	 1	 100	 1	 11	 1.2	 0	 0	 0	 0	 0	 0	 0	 0	 0	 0	 12.8;
	 20	 2.1	 0	 3.6	-3.6	 1	 100	 1	 3	 1.2	 0	 0	 0	 0	 0	 0	 0	 0	 0	 0	 12.8;
	 20	 5.6	 0	 5	-5	 1	 100	 1	 10	 1.2	 0	 0	 0	 0	 0	 0	 0	 0	 0	 0	 12.8;
	 20	 7.6	 0	 7	-7	 1	 100	 1	 14	 1.2	 0	 0	 0	 0	 0	 0	 0	 0	 0	 0	 12.8;
	 20	 6.6	 0	 6	-6	 1	 100	 1	 12	 1.2	 0	 0	 0	 0	 0	 0	 0	 0	 0	 0	 12.8;
	 21	 169.25	 0	 166	-166	 1	 100	 1	 331	 7.5	 0	 0	 0	 0	 0	 0	 0	 0	 0	 0	 64;
	 22	 28	 0	 56.4	-56.4	 1	 100	 1	 46	 10	 0	 0	 0	 0	 0	 0	 0	 0	 0	 0	 58.9;
	 22	 52.5	 0	 56.4	-56.4	 1	 100	 1	 95	 10	 0	 0	 0	 0	 0	 0	 0	 0	 0	 0	 58.9;
	 22	 32.5	 0	 97.2	-97.2	 1	 100	 1	 45	 20	 0	 0	 0	 0	 0	 0	 0	 0	 0	 0	 129.1;
	 22	 71	 0	 97.2	-97.2	 1	 100	 1	 122	 20	 0	 0	 0	 0	 0	 0	 0	 0	 0	 0	 129.1;
	 24	 30.5	 0	 27	-27	 1	 100	 1	 54	 7	 0	 0	 0	 0	 0	 0	 0	 0	 0	 0	 46;
	 24	 12.5	 1.55	 15.1	-12	 1	 100	 1	 18	 7	 0	 0	 0	 0	 0	 0	 0	 0	 0	 0	 46;
	 25	 32.8	 0	 24	-24	 1	 100	 1	 48	 17.6	 0	 0	 0	 0	 0	 0	 0	 0	 0	 0	 44;
	 25	 166.22	 0	 121	-121	 1	 100	 1	 241	 91.44	 0	 0	 0	 0	 0	 0	 0	 0	 0	 0	 228.6;
	 26	 89.23	 0	 87	-87	 1	 100	 1	 173	 5.46	 0	 0	 0	 0	 0	 0	 0	 0	 0	 0	 42;
	 27	 31.5	 0	 26	-26	 1	 100	 1	 52	 11	 0	 0	 0	 0	 0	 0	 0	 0	 0	 0	 39.4;
	 27	 17.25	 3	 19.1	-13.1	 1	 100	 1	 24	 10.5	 0	 0	 0	 0	 0	 0	 0	 0	 0	 0	 39.4;
	 27	 34.25	 0	 29	-29	 1	 100	 1	 58	 10.5	 0	 0	 0	 0	 0	 0	 0	 0	 0	 0	 39.4;
	 27	 69.5	 0	 62	-62	 1	 100	 1	 124	 15	 0	 0	 0	 0	 0	 0	 0	 0	 0	 0	 58.2;
	 30	 56.25	 0	 51	-51	 1	 100	 1	 101	 11.5	 0	 0	 0	 0	 0	 0	 0	 0	 0	 0	 29.6;
	 30	 27.25	 0.1	 22.2	-22	 1	 100	 1	 43	 11.5	 0	 0	 0	 0	 0	 0	 0	 0	 0	 0	 29.6;
	 31	 141.75	 0	 139	-139	 1	 100	 1	 277	 6.5	 0	 0	 0	 0	 0	 0	 0	 0	 0	 0	 28;
	 32	 36	 0	 34	-34	 1	 100	 1	 68	 4	 0	 0	 0	 0	 0	 0	 0	 0	 0	 0	 27;
	 32	 89.5	 0	 88	-88	 1	 100	 1	 175	 4	 0	 0	 0	 0	 0	 0	 0	 0	 0	 0	 27;
	 32	 46	 0	 44	-44	 1	 100	 1	 88	 4	 0	 0	 0	 0	 0	 0	 0	 0	 0	 0	 27;
	 33	 83.75	 0	 75	-75	 1	 100	 1	 149	 18.5	 0	 0	 0	 0	 0	 0	 0	 0	 0	 0	 46.6;
	 33	 76.75	 0	 68	-68	 1	 100	 1	 135	 18.5	 0	 0	 0	 0	 0	 0	 0	 0	 0	 0	 46.6;
	 33	 70.25	 0	 61	-61	 1	 100	 1	 122	 18.5	 0	 0	 0	 0	 0	 0	 0	 0	 0	 0	 46.6;
	 33	 23.25	 0	 33.6	-33.6	 1	 100	 1	 43	 3.5	 0	 0	 0	 0	 0	 0	 0	 0	 0	 0	 27;
	 34	 4.25	 2.4	 8.8	-4	 1	 100	 1	 7	 1.5	 0	 0	 0	 0	 0	 0	 0	 0	 0	 0	 26.8;
	 35	 21	 0	 20	-20	 1	 100	 1	 40	 2	 0	 0	 0	 0	 0	 0	 0	 0	 0	 0	 25;
	 35	 15.5	 0	 15	-15	 1	 100	 1	 29	 2	 0	 0	 0	 0	 0	 0	 0	 0	 0	 0	 25;
	 37	 0.525	 0	 9.6	-9.6	 1	 100	 1	 1	 0.05	 0	 0	 0	 0	 0	 0	 0	 0	 0	 0	 12;
	 37	 1.525	 0	 9.6	-9.6	 1	 100	 1	 3	 0.05	 0	 0	 0	 0	 0	 0	 0	 0	 0	 0	 12;
	 38	 18.0825	 0	 18	-18	 1	 100	 1	 36	 0.165	 0	 0	 0	 0	 0	 0	 0	 0	 0	 0	 5.7;
	 38	 22.5825	 0	 23	-23	 1	 100	 1	 45	 0.165	 0	 0	 0	 0	 0	 0	 0	 0	 0	 0	 5.7;
	 38	 40.0825	 0	 40	-40	 1	 100	 1	 80	 0.165	 0	 0	 0	 0	 0	 0	 0	 0	 0	 0	 5.7;
	 38	 28.0825	 0	 28	-28	 1	 100	 1	 56	 0.165	 0	 0	 0	 0	 0	 0	 0	 0	 0	 0	 5.7;
	 39	 24.5	 0	 22	-22	 1	 100	 1	 44	 5	 0	 0	 0	 0	 0	 0	 0	 0	 0	 0	 51.3;
	 39	 14	 0	 12	-12	 1	 100	 1	 23	 5	 0	 0	 0	 0	 0	 0	 0	 0	 0	 0	 20.7;
	 39	 15	 0	 13	-13	 1	 100	 1	 25	 5	 0	 0	 0	 0	 0	 0	 0	 0	 0	 0	 20.7;
	 39	 12.5	 0	 10	-10	 1	 100	 1	 20	 5	 0	 0	 0	 0	 0	 0	 0	 0	 0	 0	 20.7;
	 39	 25.5	 0	 23	-23	 1	 100	 1	 46	 5	 0	 0	 0	 0	 0	 0	 0	 0	 0	 0	 22.5;
	 39	 17.5	 0	 15	-15	 1	 100	 1	 30	 5	 0	 0	 0	 0	 0	 0	 0	 0	 0	 0	 22.5;
	 39	 11	 0.65	 10.9	-9.6	 1	 100	 1	 17	 5	 0	 0	 0	 0	 0	 0	 0	 0	 0	 0	 22.5;
	 39	 13.5	 0	 11	-11	 1	 100	 1	 22	 5	 0	 0	 0	 0	 0	 0	 0	 0	 0	 0	 22.5;
	 39	 12.5	 0.45	 10.9	-10	 1	 100	 1	 20	 5	 0	 0	 0	 0	 0	 0	 0	 0	 0	 0	 22.5;
	 39	 23.5	 0	 21	-21	 1	 100	 1	 42	 5	 0	 0	 0	 0	 0	 0	 0	 0	 0	 0	 22.5;
	 39	 9	 0	 16.9	-16.9	 1	 100	 1	 13	 5	 0	 0	 0	 0	 0	 0	 0	 0	 0	 0	 51.3;
	 39	 16.5	 0	 16.9	-16.9	 1	 100	 1	 28	 5	 0	 0	 0	 0	 0	 0	 0	 0	 0	 0	 51.3;
	 39	 26.5	 0	 24	-24	 1	 100	 1	 48	 5	 0	 0	 0	 0	 0	 0	 0	 0	 0	 0	 51.3;
	 39	 23	 0	 21	-21	 1	 100	 1	 41	 5	 0	 0	 0	 0	 0	 0	 0	 0	 0	 0	 51.3;
...
];

mpc_regionR1.branch = [
%	fbus        tbus        r           x           b           rateA       rateB       rateC       ratio       angle       status      angmin      angmax      
	 1	 290	 0.002293	 0.040314	 4.86121	 3180	 3339	 3498	 0	 0	 1	-30	 30;
	 1	 290	 0.002293	 0.040314	 4.86121	 3180	 3339	 3498	 0	 0	 1	-30	 30;
	 1	 584	 0.002436	 0.044593	 5.20757	 3180	 3339	 3498	 0	 0	 1	-30	 30;
	 1	 649	 0.000157	 0.004371	 0.42574	 4112	 4317.6	 4523.2	 0	 0	 1	-30	 30;
	 1	 1166	 0.000205	 0.015367	 0	 950	 950	 950	 1	 0	 1	-30	 30;
	 1	 1166	 0.000205	 0.015367	 0	 950	 950	 950	 1	 0	 1	-30	 30;
	 1167	 1	 0.000384	 0.028831	 0	 600	 600	 600	 1	 0	 1	-30	 30;
	 1167	 1	 0.000384	 0.028831	 0	 600	 600	 600	 1	 0	 1	-30	 30;
	 2	 41	 0.001571	 0.018186	 0.15966	 736	 772.8	 809.6	 0	 0	 1	-30	 30;
	 2	 1168	 0.000242	 0.01818	 0	 550	 550	 550	 1	 0	 1	-30	 30;
	 2	 1168	 0.000242	 0.01818	 0	 550	 550	 550	 1	 0	 1	-30	 30;
	 2	 1567	 0.002407	 0.026314	 0.25922	 736	 772.8	 809.6	 0	 0	 1	-30	 30;
	 3	 810	 0.000564	 0.007036	 0.48269	 1725	 1811.25	 1897.5	 0	 0	 1	-30	 30;
	 3	 1171	 0.000106	 0.008461	 0	 1300	 1300	 1300	 1	 0	 1	-30	 30;
	 3	 1171	 0.000106	 0.008461	 0	 1300	 1300	 1300	 1	 0	 1	-30	 30;
	 1172	 3	 0.000309	 0.021623	 0	 800	 800	 800	 1	 0	 1	-30	 30;
	 1172	 3	 0.000309	 0.021623	 0	 800	 800	 800	 1	 0	 1	-30	 30;
	 4	 639	 0.000236	 0.002914	 0.04674	 1190	 1249.5	 1309	 0	 0	 1	-30	 30;
	 4	 1173	 0.000438	 0.032886	 0	 450	 450	 450	 1	 0	 1	-30	 30;
	 4	 1173	 0.000438	 0.032886	 0	 450	 450	 450	 1	 0	 1	-30	 30;
	 5	 646	 0.006464	 0.043143	 0.08145	 366	 384.3	 402.6	 0	 0	 1	-30	 30;
	 5	 814	 0.000329	 0.002121	 0.00423	 366	 384.3	 402.6	 0	 0	 1	-30	 30;
	 5	 1175	 0.000699	 0.036327	 0	 300	 300	 300	 1	 0	 1	-30	 30;
	 5	 1175	 0.000699	 0.036327	 0	 300	 300	 300	 1	 0	 1	-30	 30;
	 6	 132	 0.000307	 0.003679	 0.27601	 244	 244	 244	 0	 0	 1	-30	 30;
	 6	 675	 0.000343	 0.004386	 0.28954	 244	 244	 244	 0	 0	 1	-30	 30;
	 6	 1176	 1e-06	 1e-05	 0	 900	 1125	 1350	 0	 0	 1	-30	 30;
	 6	 1176	 1e-06	 1e-05	 0	 900	 1125	 1350	 0	 0	 1	-30	 30;
	 7	 679	 0.000743	 0.019571	 2.123	 4112	 4317.6	 4523.2	 0	 0	 1	-30	 30;
	 7	 1178	 8.1e-05	 0.00647	 0	 1700	 1700	 1700	 1	 0	 1	-30	 30;
	 7	 1178	 8.1e-05	 0.00647	 0	 1700	 1700	 1700	 1	 0	 1	-30	 30;
	 8	 12	 2.1e-05	 0.000657	 0.06404	 4112	 4317.6	 4523.2	 0	 0	 1	-30	 30;
	 8	 19	 0.000579	 0.015871	 1.56329	 4112	 4317.6	 4523.2	 0	 0	 1	-30	 30;
	 9	 570	 0.033714	 0.187757	 0.05737	 205	 215.25	 225.5	 0	 0	 1	-30	 30;
	 9	 625	 0.011214	 0.085986	 0.02306	 238	 249.9	 261.8	 0	 0	 1	-30	 30;
	 9	 627	 0.0165	 0.066079	 0.01666	 159	 166.95	 174.9	 0	 0	 1	-30	 30;
	 9	 631	 0.014936	 0.049843	 0.01264	 142	 149.1	 156.2	 0	 0	 1	-30	 30;
	 9	 1181	 0.003471	 0.12495	 0	 100	 100	 100	 1	 0	 1	-30	 30;
	 9	 1181	 0.003471	 0.12495	 0	 100	 100	 100	 1	 0	 1	-30	 30;
	 9	 1218	 0.0189	 0.095036	 0.02476	 185	 194.25	 203.5	 0	 0	 1	-30	 30;
	 9	 1573	 0.021771	 0.125286	 0.03556	 205	 215.25	 225.5	 0	 0	 1	-30	 30;
	 10	 874	 0.006064	 0.042543	 0.07253	 366	 384.3	 402.6	 0	 0	 1	-30	 30;
	 10	 1114	 0.000479	 0.003107	 0.00619	 366	 384.3	 402.6	 0	 0	 1	-30	 30;
	 10	 1182	 0.001863	 0.072643	 0	 150	 150	 150	 1	 0	 1	-30	 30;
	 10	 1182	 0.001863	 0.072643	 0	 150	 150	 150	 1	 0	 1	-30	 30;
	 11	 99	 0.001071	 0.020007	 1.64636	 2720	 2856	 2992	 0	 0	 1	-30	 30;
	 11	 1142	 9.3e-05	 0.002436	 0.23701	 4112	 4317.6	 4523.2	 0	 0	 1	-30	 30;
	 11	 1183	 0.000174	 0.013904	 0	 1050	 1050	 1050	 1	 0	 1	-30	 30;
	 11	 1183	 0.000174	 0.013904	 0	 1050	 1050	 1050	 1	 0	 1	-30	 30;
	 12	 1089	 0.000757	 0.012129	 1.41636	 3180	 3339	 3498	 0	 0	 1	-30	 30;
	 12	 1186	 0.000137	 0.010999	 0	 1000	 1000	 1000	 1	 0	 1	-30	 30;
	 12	 1186	 0.000137	 0.010999	 0	 1000	 1000	 1000	 1	 0	 1	-30	 30;
	 13	 25	 0.003593	 0.0235	 0.00598	 219	 229.95	 240.9	 0	 0	 1	-30	 30;
	 13	 627	 0.022986	 0.059107	 0.01464	 118	 123.9	 129.8	 0	 0	 1	-30	 30;
	 13	 1187	 0.003471	 0.12495	 0	 100	 100	 100	 1	 0	 1	-30	 30;
	 13	 1187	 0.003471	 0.12495	 0	 100	 100	 100	 1	 0	 1	-30	 30;
	 13	 1556	 0.011107	 0.096307	 0.03462	 284	 298.2	 312.4	 0	 0	 1	-30	 30;
	 14	 751	 0.000586	 0.002571	 0.00089	 185	 194.25	 203.5	 0	 0	 1	-30	 30;
	 14	 752	 0.000779	 0.004979	 0.00168	 230	 241.5	 253	 0	 0	 1	-30	 30;
	 15	 19	 0.000136	 0.002471	 0.20044	 2720	 2856	 2992	 0	 0	 1	-30	 30;
	 15	 99	 0.000271	 0.003238	 0.24291	 1725	 1811.25	 1897.5	 0	 0	 1	-30	 30;
	 15	 1188	 8.3e-05	 0.006666	 0	 1650	 1650	 1650	 1	 0	 1	-30	 30;
	 15	 1188	 8.3e-05	 0.006666	 0	 1650	 1650	 1650	 1	 0	 1	-30	 30;
	 16	 1107	 0.003743	 0.014971	 0.00377	 159	 166.95	 174.9	 0	 0	 1	-30	 30;
	 16	 1110	 0.008986	 0.029307	 0.00778	 142	 149.1	 156.2	 0	 0	 1	-30	 30;
	 17	 851	 0.016736	 0.052314	 0.01516	 142	 149.1	 156.2	 0	 0	 1	-30	 30;
	 17	 1121	 0.006021	 0.016886	 0.00434	 128	 134.4	 140.8	 0	 0	 1	-30	 30;
	 1182	 17	 2.9e-05	 0.000107	 3e-05	 159	 166.95	 174.9	 0	 0	 1	-30	 30;
	 17	 1546	 0.004607	 0.027864	 0.00711	 205	 215.25	 225.5	 0	 0	 1	-30	 30;
	 17	 1551	 0.002171	 0.009021	 0.00211	 159	 166.95	 174.9	 0	 0	 1	-30	 30;
	 18	 865	 0.005971	 0.043636	 0.01122	 230	 241.5	 253	 0	 0	 1	-30	 30;
	 18	 870	 0.01205	 0.092386	 0.02477	 238	 249.9	 261.8	 0	 0	 1	-30	 30;
	 18	 1199	 0.014671	 0.101907	 0.02913	 230	 241.5	 253	 0	 0	 1	-30	 30;
	 19	 1189	 0.000101	 0.00811	 0	 1800	 1800	 1800	 1	 0	 1	-30	 30;
	 19	 1189	 0.000101	 0.00811	 0	 1800	 1800	 1800	 1	 0	 1	-30	 30;
	 20	 823	 0.01325	 0.043221	 0.01148	 142	 149.1	 156.2	 0	 0	 1	-30	 30;
	 20	 1192	 0.003471	 0.12495	 0	 100	 100	 100	 1	 0	 1	-30	 30;
	 20	 1192	 0.003471	 0.12495	 0	 100	 100	 100	 1	 0	 1	-30	 30;
	 20	 1407	 0.013707	 0.048786	 0.01085	 142	 149.1	 156.2	 0	 0	 1	-30	 30;
	 21	 683	 0.001857	 0.00655	 0.00148	 142	 149.1	 156.2	 0	 0	 1	-30	 30;
	 21	 697	 0.001014	 0.00395	 0.00106	 159	 166.95	 174.9	 0	 0	 1	-30	 30;
	 21	 1418	 0.000886	 0.005514	 0.00134	 205	 215.25	 225.5	 0	 0	 1	-30	 30;
	 22	 874	 0.00035	 0.002429	 0.00428	 366	 384.3	 402.6	 0	 0	 1	-30	 30;
	 22	 880	 0.001743	 0.011407	 0.02239	 366	 384.3	 402.6	 0	 0	 1	-30	 30;
	 22	 1193	 0.000699	 0.036327	 0	 300	 300	 300	 1	 0	 1	-30	 30;
	 22	 1193	 0.000699	 0.036327	 0	 300	 300	 300	 1	 0	 1	-30	 30;
	 23	 983	 0.000179	 0.001957	 0.01903	 736	 772.8	 809.6	 0	 0	 1	-30	 30;
	 23	 1195	 0.000357	 0.024997	 0	 400	 400	 400	 1	 0	 1	-30	 30;
	 23	 1195	 0.000357	 0.024997	 0	 400	 400	 400	 1	 0	 1	-30	 30;
	 24	 115	 0.011886	 0.053979	 0.01874	 191	 200.55	 210.1	 0	 0	 1	-30	 30;
	 24	 1197	 0.003471	 0.12495	 0	 100	 100	 100	 1	 0	 1	-30	 30;
	 24	 1197	 0.003471	 0.12495	 0	 100	 100	 100	 1	 0	 1	-30	 30;
	 24	 1227	 0.008071	 0.040814	 0.01136	 191	 200.55	 210.1	 0	 0	 1	-30	 30;
	 25	 627	 0.006679	 0.035971	 0.00989	 193	 202.65	 212.3	 0	 0	 1	-30	 30;
	 25	 628	 0.009293	 0.057157	 0.01649	 219	 229.95	 240.9	 0	 0	 1	-30	 30;
	 26	 891	 0.001914	 0.003936	 8e-05	 57	 59.85	 62.7	 0	 0	 1	-30	 30;
	 26	 892	 0.009807	 0.022764	 0.00034	 57	 59.85	 62.7	 0	 0	 1	-30	 30;
	 27	 1090	 0.003743	 0.0102	 0.00225	 118	 123.9	 129.8	 0	 0	 1	-30	 30;
	 27	 1094	 0.000536	 0.00145	 0.00033	 118	 123.9	 129.8	 0	 0	 1	-30	 30;
	 27	 1102	 0.000707	 0.002821	 0.00071	 159	 166.95	 174.9	 0	 0	 1	-30	 30;
	 27	 1103	 0.001964	 0.009007	 0.00231	 175	 183.75	 192.5	 0	 0	 1	-30	 30;
	 27	 1104	 0.00205	 0.006907	 0.00171	 142	 149.1	 156.2	 0	 0	 1	-30	 30;
	 1186	 28	 0.000221	 0.002271	 0.02519	 736	 772.8	 809.6	 0	 0	 1	-30	 30;
	 28	 1198	 0.000357	 0.024997	 0	 400	 400	 400	 1	 0	 1	-30	 30;
	 28	 1198	 0.000357	 0.024997	 0	 400	 400	 400	 1	 0	 1	-30	 30;
	 29	 507	 0.000864	 0.009779	 0.08905	 736	 772.8	 809.6	 0	 0	 1	-30	 30;
	 29	 566	 0.000521	 0.006221	 0.0571	 768	 806.4	 844.8	 0	 0	 1	-30	 30;
	 29	 1201	 0.000357	 0.024997	 0	 400	 400	 400	 1	 0	 1	-30	 30;
	 29	 1201	 0.000357	 0.024997	 0	 400	 400	 400	 1	 0	 1	-30	 30;
	 1190	 30	 0.003229	 0.023264	 0.01943	 437	 458.85	 480.7	 0	 0	 1	-30	 30;
	 30	 1214	 0.005064	 0.0521	 0.01478	 293	 307.65	 322.3	 0	 0	 1	-30	 30;
	 30	 1215	 0.00385	 0.03305	 0.00941	 261	 274.05	 287.1	 0	 0	 1	-30	 30;
	 31	 875	 0.002243	 0.010671	 0.00309	 185	 194.25	 203.5	 0	 0	 1	-30	 30;
	 1193	 31	 0.000343	 0.002121	 0.0006	 219	 229.95	 240.9	 0	 0	 1	-30	 30;
	 32	 651	 0.002986	 0.010564	 0.00238	 142	 149.1	 156.2	 0	 0	 1	-30	 30;
	 32	 655	 0.023593	 0.059329	 0.01538	 118	 123.9	 129.8	 0	 0	 1	-30	 30;
	 32	 1204	 0.003471	 0.12495	 0	 100	 100	 100	 1	 0	 1	-30	 30;
	 32	 1204	 0.003471	 0.12495	 0	 100	 100	 100	 1	 0	 1	-30	 30;
	 33	 856	 0.003307	 0.012029	 0.00369	 159	 166.95	 174.9	 0	 0	 1	-30	 30;
	 33	 859	 0.005386	 0.013536	 0.00351	 118	 123.9	 129.8	 0	 0	 1	-30	 30;
	 33	 861	 0.004193	 0.016786	 0.00423	 159	 166.95	 174.9	 0	 0	 1	-30	 30;
	 33	 862	 0.010764	 0.025943	 0.00733	 118	 123.9	 129.8	 0	 0	 1	-30	 30;
	 34	 115	 0.023471	 0.097629	 0.02281	 159	 166.95	 174.9	 0	 0	 1	-30	 30;
	 34	 1227	 0.005464	 0.019871	 0.00609	 159	 166.95	 174.9	 0	 0	 1	-30	 30;
	 35	 717	 0.182293	 0.373571	 0.00921	 59	 61.95	 64.9	 0	 0	 1	-30	 30;
	 35	 813	 0.0737	 0.145936	 0.00214	 41	 43.05	 45.1	 0	 0	 1	-30	 30;
	 35	 831	 0.079507	 0.15745	 0.00231	 41	 43.05	 45.1	 0	 0	 1	-30	 30;
	 35	 1080	 0.105093	 0.07445	 0.00118	 24	 25.2	 26.4	 0	 0	 1	-30	 30;
	 35	 1408	 0.07875	 0.138514	 0.0026	 41	 43.05	 45.1	 0	 0	 1	-30	 30;
	 36	 566	 0.000107	 0.00125	 0.01136	 736	 772.8	 809.6	 0	 0	 1	-30	 30;
	 36	 568	 0.000129	 0.001479	 0.0138	 736	 772.8	 809.6	 0	 0	 1	-30	 30;
	 36	 1205	 0.001184	 0.059188	 0	 250	 250	 250	 1	 0	 1	-30	 30;
	 36	 1205	 0.001184	 0.059188	 0	 250	 250	 250	 1	 0	 1	-30	 30;
	 37	 567	 0.007071	 0.024264	 0.00581	 142	 149.1	 156.2	 0	 0	 1	-30	 30;
	 37	 569	 0.003907	 0.019771	 0.0055	 191	 200.55	 210.1	 0	 0	 1	-30	 30;
	 38	 734	 0.009279	 0.026021	 0.0067	 128	 134.4	 140.8	 0	 0	 1	-30	 30;
	 38	 823	 0.003779	 0.009993	 0.00234	 118	 123.9	 129.8	 0	 0	 1	-30	 30;
	 39	 74	 0.0005	 0.005664	 0.05117	 736	 772.8	 809.6	 0	 0	 1	-30	 30;
	 39	 1206	 0.000529	 0.036996	 0	 400	 400	 400	 1	 0	 1	-30	 30;
	 39	 1206	 0.000529	 0.036996	 0	 400	 400	 400	 1	 0	 1	-30	 30;
	 40	 1208	 0.025307	 0.0345	 0.00076	 37	 38.85	 40.7	 0	 0	 1	-30	 30;
	 41	 1207	 0.000329	 0.024664	 0	 600	 600	 600	 1	 0	 1	-30	 30;
	 1208	 42	 0.035957	 0.023279	 0.00044	 24	 25.2	 26.4	 0	 0	 1	-30	 30;
	 43	 45	 0.000471	 0.002514	 0.00064	 191	 200.55	 210.1	 0	 0	 1	-30	 30;
	 43	 48	 0.002121	 0.008836	 0.00276	 175	 183.75	 192.5	 0	 0	 1	-30	 30;
	 44	 45	 0.001814	 0.010429	 0.00296	 205	 215.25	 225.5	 0	 0	 1	-30	 30;
	 44	 51	 0.006364	 0.016821	 0.00394	 118	 123.9	 129.8	 0	 0	 1	-30	 30;
	 1169	 44	 0.003443	 0.037721	 0.01046	 307	 322.35	 337.7	 0	 0	 1	-30	 30;
	 44	 1209	 0.002136	 0.083306	 0	 150	 150	 150	 1	 0	 1	-30	 30;
	 44	 1209	 0.002136	 0.083306	 0	 150	 150	 150	 1	 0	 1	-30	 30;
	 46	 1210	 0.030264	 0.019593	 0.00037	 24	 25.2	 26.4	 0	 0	 1	-30	 30;
	 47	 1210	 0.013993	 0.009907	 0.00016	 24	 25.2	 26.4	 0	 0	 1	-30	 30;
	 48	 49	 0.000871	 0.007243	 0.00191	 250	 262.5	 275	 0	 0	 1	-30	 30;
	 48	 112	 0.003357	 0.010943	 0.00291	 142	 149.1	 156.2	 0	 0	 1	-30	 30;
	 1169	 48	 0.004479	 0.049514	 0.01486	 317	 332.85	 348.7	 0	 0	 1	-30	 30;
	 48	 1210	 0.003471	 0.12495	 0	 100	 100	 100	 1	 0	 1	-30	 30;
	 48	 1210	 0.003471	 0.12495	 0	 100	 100	 100	 1	 0	 1	-30	 30;
	 49	 1211	 0.003471	 0.12495	 0	 100	 100	 100	 1	 0	 1	-30	 30;
	 49	 1211	 0.003471	 0.12495	 0	 100	 100	 100	 1	 0	 1	-30	 30;
	 50	 53	 0.075579	 0.053536	 0.00084	 24	 25.2	 26.4	 0	 0	 1	-30	 30;
	 51	 61	 0.012793	 0.034357	 0.00779	 118	 123.9	 129.8	 0	 0	 1	-30	 30;
	 52	 53	 0.013086	 0.023014	 0.00044	 41	 43.05	 45.1	 0	 0	 1	-30	 30;
	 1210	 52	 0.065879	 0.04265	 0.00081	 24	 25.2	 26.4	 0	 0	 1	-30	 30;
	 53	 54	 0.004486	 0.017529	 0.00039	 88	 92.4	 96.8	 0	 0	 1	-30	 30;
	 53	 56	 0.122943	 0.0796	 0.00151	 24	 25.2	 26.4	 0	 0	 1	-30	 30;
	 1209	 54	 0.008007	 0.035479	 0.00106	 103	 108.15	 113.3	 0	 0	 1	-30	 30;
	 55	 57	 0.043593	 0.030879	 0.00049	 24	 25.2	 26.4	 0	 0	 1	-30	 30;
	 1211	 55	 0.014429	 0.02965	 0.00056	 57	 59.85	 62.7	 0	 0	 1	-30	 30;
	 57	 58	 0.0909	 0.05885	 0.00112	 24	 25.2	 26.4	 0	 0	 1	-30	 30;
	 59	 60	 0.010921	 0.028364	 0.00689	 118	 123.9	 129.8	 0	 0	 1	-30	 30;
	 59	 1145	 0.011514	 0.029593	 0.00733	 118	 123.9	 129.8	 0	 0	 1	-30	 30;
	 59	 1212	 0.00806	 0.24987	 0	 50	 50	 50	 1	 0	 1	-30	 30;
	 59	 1212	 0.00806	 0.24987	 0	 50	 50	 50	 1	 0	 1	-30	 30;
	 60	 61	 0.011	 0.02855	 0.00693	 118	 123.9	 129.8	 0	 0	 1	-30	 30;
	 60	 1145	 0.01395	 0.037993	 0.00837	 118	 123.9	 129.8	 0	 0	 1	-30	 30;
	 60	 1213	 0.00806	 0.24987	 0	 50	 50	 50	 1	 0	 1	-30	 30;
	 60	 1213	 0.00806	 0.24987	 0	 50	 50	 50	 1	 0	 1	-30	 30;
	 1168	 62	 0.002207	 0.013393	 0.03051	 366	 384.3	 402.6	 0	 0	 1	-30	 30;
	 1183	 62	 0.004514	 0.031693	 0.054	 366	 384.3	 402.6	 0	 0	 1	-30	 30;
	 63	 674	 0.544614	 0.353507	 0.00673	 24	 25.2	 26.4	 0	 0	 1	-30	 30;
	 64	 65	 0.002236	 0.030064	 0.10629	 871	 914.55	 958.1	 0	 0	 1	-30	 30;
	 64	 1029	 0.0024	 0.029793	 0.10769	 834	 875.7	 917.4	 0	 0	 1	-30	 30;
	 65	 66	 0.000714	 0.008971	 0.03138	 834	 875.7	 917.4	 0	 0	 1	-30	 30;
	 65	 1214	 0.000577	 0.031138	 0	 350	 350	 350	 1	 0	 1	-30	 30;
	 65	 1214	 0.000577	 0.031138	 0	 350	 350	 350	 1	 0	 1	-30	 30;
	 1179	 66	 0.004021	 0.033579	 0.10491	 635	 666.75	 698.5	 0	 0	 1	-30	 30;
	 1189	 66	 0.001021	 0.013321	 0.04313	 834	 875.7	 917.4	 0	 0	 1	-30	 30;
	 66	 1215	 0.000699	 0.036327	 0	 300	 300	 300	 1	 0	 1	-30	 30;
	 66	 1215	 0.000699	 0.036327	 0	 300	 300	 300	 1	 0	 1	-30	 30;
	 67	 68	 0.00225	 0.023814	 0.00707	 307	 322.35	 337.7	 0	 0	 1	-30	 30;
	 67	 625	 0.010107	 0.078357	 0.02748	 261	 274.05	 287.1	 0	 0	 1	-30	 30;
	 68	 1216	 0.002579	 0.028514	 0.00855	 317	 332.85	 348.7	 0	 0	 1	-30	 30;
	 1180	 69	 0.016357	 0.041429	 0.00082	 64	 67.2	 70.4	 0	 0	 1	-30	 30;
	 70	 1217	 0.055507	 0.043507	 0.00056	 24	 25.2	 26.4	 0	 0	 1	-30	 30;
	 1179	 71	 0.00145	 0.009893	 0.01781	 366	 384.3	 402.6	 0	 0	 1	-30	 30;
	 71	 1216	 0.000389	 0.027247	 0	 400	 400	 400	 1	 0	 1	-30	 30;
	 1217	 71	 0.001336	 0.066787	 0	 250	 250	 250	 1	 0	 1	-30	 30;
	 72	 73	 0.038229	 0.027079	 0.00043	 24	 25.2	 26.4	 0	 0	 1	-30	 30;
	 72	 103	 0.011029	 0.019821	 0.00036	 41	 43.05	 45.1	 0	 0	 1	-30	 30;
	 1217	 72	 0.014829	 0.023664	 0.00054	 41	 43.05	 45.1	 0	 0	 1	-30	 30;
...
];

mpc_regionR1.gencost = [
%	2           startup     shutdown    n           c(n-1)...c0 
	 2	 0	 0	 3	 0.062	 14.879	 43.97;
	 2	 0	 0	 3	 0	 14.879	 7248.63;
	 2	 0	 0	 3	 0	 14.879	 7248.63;
	 2	 0	 0	 3	 0	 14.879	 7248.63;
	 2	 0	 0	 3	 0	 14.879	 7248.63;
	 2	 0	 0	 3	 0	 14.879	 7248.63;
	 2	 0	 0	 3	 0	 14.879	 7248.63;
	 2	 0	 0	 3	 0	 14.879	 7248.63;
	 2	 0	 0	 3	 0	 14.879	 7248.63;
	 2	 0	 0	 3	 0	 14.879	 7248.63;
	 2	 0	 0	 3	 0	 14.879	 7248.63;
	 2	 0	 0	 3	 0.062	 14.879	 43.97;
	 2	 0	 0	 3	 0	 14.879	 7248.63;
	 2	 0	 0	 3	 0	 14.879	 7248.63;
	 2	 0	 0	 3	 0	 14.879	 7248.63;
	 2	 0	 0	 3	 0	 14.879	 7248.63;
	 2	 0	 0	 3	 0	 14.879	 7248.63;
	 2	 0	 0	 3	 0	 14.879	 7248.63;
	 2	 0	 0	 3	 0	 14.879	 7248.63;
	 2	 0	 0	 3	 0	 14.879	 7248.63;
	 2	 0	 0	 3	 0	 14.879	 7248.63;
	 2	 0	 0	 3	 0	 14.879	 7248.63;
	 2	 0	 0	 3	 0.062	 14.879	 43.97;
	 2	 0	 0	 3	 0	 14.879	 7248.63;
	 2	 0	 0	 3	 0	 14.879	 7248.63;
	 2	 0	 0	 3	 0	 14.879	 7248.63;
	 2	 0	 0	 3	 0	 14.879	 7248.63;
	 2	 0	 0	 3	 0.021	 14.879	 131.69;
	 2	 0	 0	 3	 0.021	 14.879	 131.69;
	 2	 0	 0	 3	 0.021	 14.879	 131.69;
	 2	 0	 0	 3	 0.021	 14.879	 131.69;
	 2	 0	 0	 3	 0.021	 14.879	 131.69;
	 2	 0	 0	 3	 0.021	 14.879	 131.69;
	 2	 0	 0	 3	 0.062	 14.879	 43.97;
	 2	 0	 0	 3	 0.021	 14.879	 131.69;
	 2	 0	 0	 3	 0.021	 14.879	 131.69;
	 2	 0	 0	 3	 0.021	 14.879	 131.69;
	 2	 0	 0	 3	 0.021	 14.879	 131.69;
	 2	 0	 0	 3	 0.021	 14.879	 131.69;
	 2	 0	 0	 3	 0.021	 14.879	 131.69;
	 2	 0	 0	 3	 0.021	 14.879	 131.69;
	 2	 0	 0	 3	 0.021	 14.879	 131.69;
	 2	 0	 0	 3	 0.021	 14.879	 131.69;
	 2	 0	 0	 3	 0.021	 14.879	 131.69;
	 2	 0	 0	 3	 0.062	 14.879	 43.97;
	 2	 0	 0	 3	 0.021	 14.879	 131.69;
	 2	 0	 0	 3	 0.021	 14.879	 131.69;
	 2	 0	 0	 3	 0.005	 14.879	 573.64;
	 2	 0	 0	 3	 0.005	 14.879	 573.64;
	 2	 0	 0	 3	 0.005	 14.879	 573.64;
	 2	 0	 0	 3	 0.003	 14.879	 898.41;
	 2	 0	 0	 3	 0.003	 14.879	 898.41;
	 2	 0	 0	 3	 0.003	 14.879	 898.41;
	 2	 0	 0	 3	 0.062	 14.879	 43.97;
	 2	 0	 0	 3	 0	 14.879	 7248.63;
	 2	 0	 0	 3	 0	 14.879	 7248.63;
	 2	 0	 0	 3	 0	 14.879	 7248.63;
	 2	 0	 0	 3	 0	 0	 0;
	 2	 0	 0	 3	 0.053	 14.879	 51.34;
	 2	 0	 0	 3	 0.053	 14.879	 51.34;
	 2	 0	 0	 3	 0.053	 14.879	 51.34;
	 2	 0	 0	 3	 0.053	 14.879	 51.34;
	 2	 0	 0	 3	 0.002	 12.823	 1158.63;
	 2	 0	 0	 3	 0.002	 12.823	 1158.63;
	 2	 0	 0	 3	 0.009	 18.772	 588.04;
	 2	 0	 0	 3	 0.009	 18.772	 588.04;
	 2	 0	 0	 3	 0.009	 18.772	 588.04;
	 2	 0	 0	 3	 0.009	 18.772	 588.04;
	 2	 0	 0	 3	 0.009	 18.772	 588.04;
	 2	 0	 0	 3	 0.009	 18.772	 588.04;
	 2	 0	 0	 3	 0.032	 9.547	 2249.86;
	 2	 0	 0	 3	 0.032	 9.547	 2249.86;
	 2	 0	 0	 3	 0.026	 11.398	 993.75;
	 2	 0	 0	 3	 0.021	 14.879	 131.69;
	 2	 0	 0	 3	 0.021	 14.879	 131.69;
	 2	 0	 0	 3	 0.021	 14.879	 131.69;
	 2	 0	 0	 3	 0.021	 14.879	 131.69;
	 2	 0	 0	 3	 0.021	 14.879	 131.69;
	 2	 0	 0	 3	 0.021	 14.879	 131.69;
	 2	 0	 0	 3	 0.021	 14.879	 131.69;
	 2	 0	 0	 3	 0.021	 14.879	 131.69;
	 2	 0	 0	 3	 0.021	 14.879	 131.69;
	 2	 0	 0	 3	 0.021	 14.879	 131.69;
	 2	 0	 0	 3	 0.021	 14.879	 131.69;
	 2	 0	 0	 3	 0.021	 14.879	 131.69;
	 2	 0	 0	 3	 0.021	 14.879	 131.69;
	 2	 0	 0	 3	 0.021	 14.879	 131.69;
	 2	 0	 0	 3	 0.021	 14.879	 131.69;
	 2	 0	 0	 3	 0	 0	 0;
	 2	 0	 0	 3	 0.009	 18.772	 588.04;
	 2	 0	 0	 3	 0.009	 18.772	 588.04;
	 2	 0	 0	 3	 0.009	 18.772	 588.04;
	 2	 0	 0	 3	 0.021	 14.879	 131.69;
	 2	 0	 0	 3	 0.021	 14.879	 131.69;
	 2	 0	 0	 3	 0.021	 14.879	 131.69;
	 2	 0	 0	 3	 0.021	 14.879	 131.69;
	 2	 0	 0	 3	 0.021	 14.879	 131.69;
	 2	 0	 0	 3	 0.021	 14.879	 131.69;
	 2	 0	 0	 3	 0.021	 14.879	 131.69;
	 2	 0	 0	 3	 0.021	 14.879	 131.69;
	 2	 0	 0	 3	 0.021	 14.879	 131.69;
	 2	 0	 0	 3	 0.021	 14.879	 131.69;
	 2	 0	 0	 3	 0	 0	 0;
	 2	 0	 0	 3	 0.007	 16.922	 371.49;
	 2	 0	 0	 3	 0.007	 16.922	 371.49;
	 2	 0	 0	 3	 0.021	 14.879	 131.69;
	 2	 0	 0	 3	 0.021	 14.879	 131.69;
	 2	 0	 0	 3	 0.021	 14.879	 131.69;
	 2	 0	 0	 3	 0.021	 14.879	 131.69;
	 2	 0	 0	 3	 0.021	 14.879	 131.69;
	 2	 0	 0	 3	 0.021	 14.879	 131.69;
	 2	 0	 0	 3	 0.021	 14.879	 131.69;
	 2	 0	 0	 3	 0.021	 14.879	 131.69;
	 2	 0	 0	 3	 0.021	 14.879	 131.69;
	 2	 0	 0	 3	 0.021	 14.879	 131.69;
	 2	 0	 0	 3	 0.021	 14.879	 131.69;
	 2	 0	 0	 3	 0.021	 14.879	 131.69;
	 2	 0	 0	 3	 0.021	 14.879	 131.69;
	 2	 0	 0	 3	 0.021	 14.879	 131.69;
	 2	 0	 0	 3	 0.021	 14.879	 131.69;
	 2	 0	 0	 3	 0.021	 14.879	 131.69;
	 2	 0	 0	 3	 0.021	 14.879	 131.69;
	 2	 0	 0	 3	 0.021	 14.879	 131.69;
	 2	 0	 0	 3	 0.021	 14.879	 131.69;
	 2	 0	 0	 3	 0.021	 14.879	 131.69;
	 2	 0	 0	 3	 0.021	 14.879	 131.69;
	 2	 0	 0	 3	 0.021	 14.879	 131.69;
	 2	 0	 0	 3	 0.021	 14.879	 131.69;
	 2	 0	 0	 3	 0.021	 14.879	 131.69;
	 2	 0	 0	 3	 0.021	 14.879	 131.69;
	 2	 0	 0	 3	 0.021	 14.879	 131.69;
	 2	 0	 0	 3	 0.021	 14.879	 131.69;
	 2	 0	 0	 3	 0.053	 14.879	 51.34;
	 2	 0	 0	 3	 0.009	 18.772	 588.04;
	 2	 0	 0	 3	 0.007	 16.922	 371.49;
	 2	 0	 0	 3	 0.007	 16.922	 371.49;
	 2	 0	 0	 3	 0.021	 14.879	 131.69;
	 2	 0	 0	 3	 0.021	 14.879	 131.69;
	 2	 0	 0	 3	 0.021	 14.879	 131.69;
	 2	 0	 0	 3	 0.021	 14.879	 131.69;
	 2	 0	 0	 3	 0.021	 14.879	 131.69;
	 2	 0	 0	 3	 0.021	 14.879	 131.69;
	 2	 0	 0	 3	 0.021	 14.879	 131.69;
	 2	 0	 0	 3	 0.021	 14.879	 131.69;
	 2	 0	 0	 3	 0.021	 14.879	 131.69;
	 2	 0	 0	 3	 0.021	 14.879	 131.69;
	 2	 0	 0	 3	 0.021	 14.879	 131.69;
	 2	 0	 0	 3	 0.062	 14.879	 43.97;
	 2	 0	 0	 3	 0.062	 14.879	 43.97;
	 2	 0	 0	 3	 0.062	 14.879	 43.97;
	 2	 0	 0	 3	 0.062	 14.879	 43.97;
	 2	 0	 0	 3	 0.062	 14.879	 43.97;
	 2	 0	 0	 3	 0.062	 14.879	 43.97;
	 2	 0	 0	 3	 0.054	 34.387	 271.58;
	 2	 0	 0	 3	 0.026	 13.537	 318.86;
	 2	 0	 0	 3	 0.026	 13.537	 318.86;
	 2	 0	 0	 3	 0.007	 16.922	 371.49;
	 2	 0	 0	 3	 0.007	 16.922	 371.49;
	 2	 0	 0	 3	 0.062	 14.879	 43.97;
	 2	 0	 0	 3	 0.062	 14.879	 43.97;
	 2	 0	 0	 3	 0	 0	 0.38;
	 2	 0	 0	 3	 0	 0	 0;
	 2	 0	 0	 3	 0.073	 34.526	 226.22;
	 2	 0	 0	 3	 0.053	 14.879	 51.34;
	 2	 0	 0	 3	 0.053	 14.879	 51.34;
	 2	 0	 0	 3	 0.053	 14.879	 51.34;
	 2	 0	 0	 3	 0.053	 14.879	 51.34;
	 2	 0	 0	 3	 0.062	 14.879	 43.97;
	 2	 0	 0	 3	 0.062	 14.879	 43.97;
	 2	 0	 0	 3	 0.108	 34.775	 181.33;
	 2	 0	 0	 3	 0.062	 14.879	 43.97;
	 2	 0	 0	 3	 0.062	 14.879	 43.97;
	 2	 0	 0	 3	 0.062	 14.879	 43.97;
	 2	 0	 0	 3	 0.026	 13.537	 318.86;
	 2	 0	 0	 3	 0.026	 13.537	 318.86;
	 2	 0	 0	 3	 0.026	 13.537	 318.86;
	 2	 0	 0	 3	 0.053	 14.879	 51.34;
	 2	 0	 0	 3	 0.062	 14.879	 43.97;
	 2	 0	 0	 3	 0.062	 14.879	 43.97;
	 2	 0	 0	 3	 0.062	 14.879	 43.97;
	 2	 0	 0	 3	 0.062	 14.879	 43.97;
	 2	 0	 0	 3	 0.062	 14.879	 43.97;
	 2	 0	 0	 3	 0.062	 14.879	 43.97;
	 2	 0	 0	 3	 0.062	 14.879	 43.97;
	 2	 0	 0	 3	 0.062	 14.879	 43.97;
	 2	 0	 0	 3	 0.062	 14.879	 43.97;
	 2	 0	 0	 3	 0.062	 14.879	 43.97;
	 2	 0	 0	 3	 0.062	 14.879	 43.97;
	 2	 0	 0	 3	 0.062	 14.879	 43.97;
	 2	 0	 0	 3	 0.062	 14.879	 43.97;
	 2	 0	 0	 3	 0.062	 14.879	 43.97;
	 2	 0	 0	 3	 0.062	 14.879	 43.97;
	 2	 0	 0	 3	 0.062	 14.879	 43.97;
	 2	 0	 0	 3	 0.062	 14.879	 43.97;
	 2	 0	 0	 3	 0.062	 14.879	 43.97;
	 2	 0	 0	 3	 0.062	 14.879	 43.97;
	 2	 0	 0	 3	 0.062	 14.879	 43.97;
	 2	 0	 0	 3	 0.062	 14.879	 43.97;
	 2	 0	 0	 3	 0.062	 14.879	 43.97;
	 2	 0	 0	 3	 0.062	 14.879	 43.97;
...
];


% -------------------- mpc_regionR2 --------------------

mpc_regionR2.version = '2';
mpc_regionR2.baseMVA = 100.0000;
mpc_regionR2.bus = [
%	bus_i       type        Pd          Qd          Gs          Bs          area        Vm          Va          baseKV      zone        Vmax        Vmin        
	 1	 2	 0	 0	 0	 0	 8	 1	 0	 500	 1	 1.1	 0.9;
	 2	 2	 0	 0	 0	 0	 8	 1	 0	 500	 1	 1.1	 0.9;
	 3	 2	 0	 0	 0	 0	 8	 1	 0	 500	 1	 1.1	 0.9;
	 4	 2	 0	 0	 0	 0	 8	 1	 0	 138	 1	 1.1	 0.9;
	 5	 2	 0	 0	 0	 0	 8	 1	 0	 230	 1	 1.1	 0.9;
	 6	 2	 0	 0	 0	 0	 8	 1	 0	 345	 1	 1.1	 0.9;
	 7	 2	 0	 0	 0	 0	 8	 1	 0	 345	 1	 1.1	 0.9;
	 8	 2	 0	 0	 0	 0	 8	 1	 0	 500	 1	 1.1	 0.9;
	 9	 2	 0	 0	 0	 0	 8	 1	 0	 500	 1	 1.1	 0.9;
	 10	 1	 0	 0	 0	 37.41	 8	 1	 0	 500	 1	 1.1	 0.9;
	 11	 2	 0	 0	 0	 0	 8	 1	 0	 138	 1	 1.1	 0.9;
	 12	 2	 0	 0	 0	 0	 8	 1	 0	 500	 1	 1.1	 0.9;
	 13	 2	 0	 0	 0	 0	 8	 1	 0	 138	 1	 1.1	 0.9;
	 14	 2	 0	 0	 0	 0	 8	 1	 0	 500	 1	 1.1	 0.9;
	 15	 2	 0	 0	 0	 0	 8	 1	 0	 138	 1	 1.1	 0.9;
	 16	 2	 0	 0	 0	 0	 8	 1	 0	 138	 1	 1.1	 0.9;
	 17	 2	 0	 0	 0	 0	 8	 1	 0	 138	 1	 1.1	 0.9;
	 18	 1	 0	 0	 0	-52.72	 8	 1	 0	 345	 1	 1.1	 0.9;
	 19	 2	 0	 0	 0	 0	 8	 1	 0	 230	 1	 1.1	 0.9;
	 20	 2	 0	 0	 0	 0	 8	 1	 0	 138	 1	 1.1	 0.9;
	 21	 2	 0	 0	 0	 0	 8	 1	 0	 500	 1	 1.1	 0.9;
	 22	 2	 0	 0	 0	 0	 8	 1	 0	 138	 1	 1.1	 0.9;
	 23	 2	 0	 0	 0	 0	 8	 1	 0	 138	 1	 1.1	 0.9;
	 24	 1	 0	 0	 0	 0	 8	 1	 0	 138	 1	 1.1	 0.9;
	 25	 2	 0	 0	 0	 0	 8	 1	 0	 500	 1	 1.1	 0.9;
	 26	 2	 0	 0	 0	 0	 8	 1	 0	 138	 1	 1.1	 0.9;
	 27	 2	 0	 0	 0	 0	 8	 1	 0	 69	 1	 1.1	 0.9;
	 28	 2	 0	 0	 0	 0	 8	 1	 0	 138	 1	 1.1	 0.9;
	 29	 2	 0	 0	 0	 0	 8	 1	 0	 138	 1	 1.1	 0.9;
	 30	 2	 0	 0	 0	 0	 8	 1	 0	 138	 1	 1.1	 0.9;
	 31	 2	 0	 0	 0	 0	 8	 1	 0	 138	 1	 1.1	 0.9;
	 32	 2	 0	 0	 0	 0	 8	 1	 0	 69	 1	 1.1	 0.9;
	 33	 2	 0	 0	 0	 0	 8	 1	 0	 69	 1	 1.1	 0.9;
	 34	 2	 0	 0	 0	 0	 8	 1	 0	 138	 1	 1.1	 0.9;
	 35	 2	 0	 0	 0	 0	 8	 1	 0	 69	 1	 1.1	 0.9;
	 36	 2	 0	 0	 0	 0	 8	 1	 0	 138	 1	 1.1	 0.9;
	 37	 2	 0	 0	 0	 0	 8	 1	 0	 69	 1	 1.1	 0.9;
	 38	 2	 0	 0	 0	 0	 8	 1	 0	 69	 1	 1.1	 0.9;
	 39	 2	 0	 0	 0	 0	 8	 1	 0	 230	 1	 1.1	 0.9;
	 40	 2	 0	 0	 0	 0	 8	 1	 0	 138	 1	 1.1	 0.9;
	 41	 2	 0	 0	 0	 0	 8	 1	 0	 69	 1	 1.1	 0.9;
	 42	 2	 0	 0	 0	 0	 8	 1	 0	 69	 1	 1.1	 0.9;
	 43	 2	 0	 0	 0	 0	 8	 1	 0	 69	 1	 1.1	 0.9;
	 44	 2	 0	 0	 0	 0	 8	 1	 0	 69	 1	 1.1	 0.9;
	 45	 2	 0	 0	 0	 0	 8	 1	 0	 230	 1	 1.1	 0.9;
	 46	 2	 0	 0	 0	 0	 8	 1	 0	 69	 1	 1.1	 0.9;
	 47	 2	 0	 0	 0	 0	 8	 1	 0	 138	 1	 1.1	 0.9;
	 48	 2	 0	 0	 0	 0	 8	 1	 0	 69	 1	 1.1	 0.9;
	 49	 2	 0	 0	 0	 0	 8	 1	 0	 69	 1	 1.1	 0.9;
	 50	 1	 0	 0	 0	 0	 10	 1	 0	 500	 1	 1.1	 0.9;
	 51	 1	 0	 0	 0	 0	 10	 1	 0	 230	 1	 1.1	 0.9;
	 52	 2	 0	 0	 0	 0	 10	 1	 0	 345	 1	 1.1	 0.9;
	 53	 2	 0	 0	 0	 0	 10	 1	 0	 138	 1	 1.1	 0.9;
	 54	 2	 0	 0	 0	 0	 10	 1	 0	 230	 1	 1.1	 0.9;
	 55	 1	 0	 0	 0	 52.05	 10	 1	 0	 500	 1	 1.1	 0.9;
	 56	 2	 0	 0	 0	 0	 10	 1	 0	 230	 1	 1.1	 0.9;
	 57	 2	 0	 0	 0	 0	 10	 1	 0	 230	 1	 1.1	 0.9;
	 58	 2	 0	 0	 0	 0	 10	 1	 0	 138	 1	 1.1	 0.9;
	 59	 2	 0	 0	 0	 0	 10	 1	 0	 138	 1	 1.1	 0.9;
	 60	 2	 0	 0	 0	 0	 10	 1	 0	 138	 1	 1.1	 0.9;
	 61	 2	 0	 0	 0	 0	 10	 1	 0	 138	 1	 1.1	 0.9;
	 62	 2	 0	 0	 0	 0	 10	 1	 0	 138	 1	 1.1	 0.9;
	 63	 2	 0	 0	 0	 0	 10	 1	 0	 69	 1	 1.1	 0.9;
	 64	 2	 0	 0	 0	 0	 10	 1	 0	 138	 1	 1.1	 0.9;
	 65	 2	 0	 0	 0	 0	 10	 1	 0	 230	 1	 1.1	 0.9;
	 66	 2	 0	 0	 0	 0	 10	 1	 0	 138	 1	 1.1	 0.9;
	 67	 2	 0	 0	 0	 0	 10	 1	 0	 138	 1	 1.1	 0.9;
	 68	 2	 0	 0	 0	 0	 10	 1	 0	 69	 1	 1.1	 0.9;
	 69	 1	 0	 0	 0	 0	 10	 1	 0	 345	 1	 1.1	 0.9;
	 70	 1	 20.41	 2.25	 0	 0	 8	 1	 0	 69	 1	 1.1	 0.9;
	 71	 1	 8.42	 1.46	 0	 0	 8	 1	 0	 69	 1	 1.1	 0.9;
	 72	 1	 11.02	 1.88	 0	 0	 8	 1	 0	 69	 1	 1.1	 0.9;
	 73	 1	 5.36	 0.83	 0	 0	 8	 1	 0	 69	 1	 1.1	 0.9;
	 74	 1	 0	 0	 0	 0	 8	 1	 0	 138	 1	 1.1	 0.9;
	 75	 1	 7.14	 0.74	 0	 0	 8	 1	 0	 69	 1	 1.1	 0.9;
	 76	 1	 9.46	 1.62	 0	 0	 8	 1	 0	 69	 1	 1.1	 0.9;
	 77	 1	 4.77	 0.73	 0	 0	 8	 1	 0	 69	 1	 1.1	 0.9;
	 78	 1	 6.06	 1.21	 0	 0	 8	 1	 0	 69	 1	 1.1	 0.9;
	 79	 1	 7.92	 0.87	 0	 0	 8	 1	 0	 69	 1	 1.1	 0.9;
	 80	 1	 11.67	 1.31	 0	 0	 8	 1	 0	 69	 1	 1.1	 0.9;
	 81	 1	 26.89	 2.66	 0	 0	 8	 1	 0	 69	 1	 1.1	 0.9;
	 82	 1	 6.56	 1.25	 0	 0	 8	 1	 0	 69	 1	 1.1	 0.9;
	 83	 1	 9.97	 1.93	 0	 0	 8	 1	 0	 69	 1	 1.1	 0.9;
	 84	 1	 10.12	 1.4	 0	 0	 8	 1	 0	 69	 1	 1.1	 0.9;
	 85	 1	 0	 0	 0	 0	 8	 1	 0	 138	 1	 1.1	 0.9;
	 86	 1	 17.35	 2.83	 0	 0	 8	 1	 0	 69	 1	 1.1	 0.9;
	 87	 1	 7.94	 0.86	 0	 0	 8	 1	 0	 69	 1	 1.1	 0.9;
	 88	 1	 8.22	 1.18	 0	 0	 8	 1	 0	 69	 1	 1.1	 0.9;
	 89	 1	 0	 0	 0	 0	 8	 1	 0	 138	 1	 1.1	 0.9;
	 90	 1	 0	 0	 0	 0	 8	 1	 0	 138	 1	 1.1	 0.9;
	 91	 1	 6.93	 1.02	 0	 0	 8	 1	 0	 69	 1	 1.1	 0.9;
	 92	 1	 0	 0	 0	 0	 8	 1	 0	 138	 1	 1.1	 0.9;
	 93	 1	 12.3	 1.56	 0	 0	 8	 1	 0	 69	 1	 1.1	 0.9;
	 94	 1	 4.83	 0.75	 0	 0	 8	 1	 0	 69	 1	 1.1	 0.9;
	 95	 1	 5.37	 0.74	 0	 0	 8	 1	 0	 69	 1	 1.1	 0.9;
	 96	 1	 9.45	 1.48	 0	 0	 8	 1	 0	 69	 1	 1.1	 0.9;
	 97	 1	 3.38	 0.62	 0	 0	 8	 1	 0	 69	 1	 1.1	 0.9;
	 98	 1	 8.98	 0.89	 0	 0	 8	 1	 0	 69	 1	 1.1	 0.9;
	 99	 1	 3.75	 0.43	 0	 0	 8	 1	 0	 69	 1	 1.1	 0.9;
	 100	 1	 0	 0	 0	 0	 8	 1	 0	 138	 1	 1.1	 0.9;
	 101	 1	 5.65	 0.73	 0	 0	 8	 1	 0	 69	 1	 1.1	 0.9;
	 102	 1	 0	 0	 0	 0	 8	 1	 0	 138	 1	 1.1	 0.9;
	 103	 1	 10.38	 2.13	 0	 0	 8	 1	 0	 69	 1	 1.1	 0.9;
	 104	 1	 14.65	 2.33	 0	 0	 8	 1	 0	 138	 1	 1.1	 0.9;
	 105	 1	 9.28	 1.7	 0	 0	 8	 1	 0	 69	 1	 1.1	 0.9;
	 106	 1	 6.78	 0.55	 0	 0	 8	 1	 0	 69	 1	 1.1	 0.9;
	 107	 1	 9.23	 0.88	 0	 0	 8	 1	 0	 69	 1	 1.1	 0.9;
	 108	 1	 10.35	 2.14	 0	 0	 8	 1	 0	 69	 1	 1.1	 0.9;
	 109	 1	 0	 0	 0	 0	 8	 1	 0	 138	 1	 1.1	 0.9;
	 110	 1	 18.76	 3.26	 0	 0	 8	 1	 0	 138	 1	 1.1	 0.9;
	 111	 1	 8.52	 1.23	 0	 0	 8	 1	 0	 69	 1	 1.1	 0.9;
	 112	 1	 18.65	 3.86	 0	 0	 8	 1	 0	 69	 1	 1.1	 0.9;
	 113	 1	 7.86	 1.28	 0	 0	 8	 1	 0	 69	 1	 1.1	 0.9;
	 114	 1	 7.57	 1.45	 0	 0	 8	 1	 0	 69	 1	 1.1	 0.9;
	 115	 1	 7.14	 0.61	 0	 0	 8	 1	 0	 69	 1	 1.1	 0.9;
	 116	 1	 9.6	 1.14	 0	 0	 8	 1	 0	 69	 1	 1.1	 0.9;
	 117	 1	 8.84	 1.35	 0	 0	 8	 1	 0	 69	 1	 1.1	 0.9;
	 118	 1	 7.9	 0.83	 0	 0	 8	 1	 0	 69	 1	 1.1	 0.9;
	 119	 1	 0	 0	 0	 0	 8	 1	 0	 138	 1	 1.1	 0.9;
	 120	 1	 21.15	 4.54	 0	 0	 8	 1	 0	 69	 1	 1.1	 0.9;
	 121	 1	 0	 0	 0	 59.74	 8	 1	 0	 345	 1	 1.1	 0.9;
	 122	 1	 0	 0	 0	 0	 8	 1	 0	 138	 1	 1.1	 0.9;
	 123	 1	 5.25	 0.75	 0	 0	 8	 1	 0	 69	 1	 1.1	 0.9;
	 124	 1	 9.04	 1.29	 0	 0	 8	 1	 0	 138	 1	 1.1	 0.9;
	 125	 1	 8.01	 1.53	 0	 0	 8	 1	 0	 69	 1	 1.1	 0.9;
	 126	 1	 8.13	 1.34	 0	 0	 8	 1	 0	 69	 1	 1.1	 0.9;
	 127	 1	 17.88	 2.11	 0	 0	 8	 1	 0	 69	 1	 1.1	 0.9;
	 128	 1	 8.94	 1.66	 0	 0	 8	 1	 0	 69	 1	 1.1	 0.9;
	 129	 1	 0	 0	 0	 122.93	 8	 1	 0	 345	 1	 1.1	 0.9;
	 130	 1	 0	 0	 0	 0	 8	 1	 0	 138	 1	 1.1	 0.9;
	 131	 1	 6.06	 1.08	 0	 0	 8	 1	 0	 69	 1	 1.1	 0.9;
	 132	 1	 7.34	 1.46	 0	 0	 8	 1	 0	 69	 1	 1.1	 0.9;
	 133	 1	 0	 0	 0	 0	 8	 1	 0	 138	 1	 1.1	 0.9;
	 134	 1	 5.77	 1.09	 0	 0	 8	 1	 0	 69	 1	 1.1	 0.9;
	 135	 1	 0	 0	 0	 0	 8	 1	 0	 138	 1	 1.1	 0.9;
	 136	 1	 0	 0	 0	 0	 8	 1	 0	 138	 1	 1.1	 0.9;
	 137	 1	 6.74	 1.24	 0	 0	 8	 1	 0	 69	 1	 1.1	 0.9;
	 138	 1	 3.69	 0.63	 0	 0	 8	 1	 0	 69	 1	 1.1	 0.9;
	 139	 1	 9.3	 1.64	 0	 0	 8	 1	 0	 69	 1	 1.1	 0.9;
	 140	 1	 5.88	 0.94	 0	 0	 8	 1	 0	 69	 1	 1.1	 0.9;
	 141	 1	 9.68	 1.71	 0	 0	 8	 1	 0	 69	 1	 1.1	 0.9;
	 142	 1	 5.62	 0.95	 0	 0	 8	 1	 0	 69	 1	 1.1	 0.9;
	 143	 1	 9.75	 1.39	 0	 0	 8	 1	 0	 69	 1	 1.1	 0.9;
	 144	 1	 8.34	 1.3	 0	 0	 8	 1	 0	 69	 1	 1.1	 0.9;
	 145	 1	 5.11	 0.92	 0	 0	 8	 1	 0	 69	 1	 1.1	 0.9;
	 146	 1	 5.93	 1.09	 0	 0	 8	 1	 0	 69	 1	 1.1	 0.9;
	 147	 1	 10.58	 1.97	 0	 0	 8	 1	 0	 69	 1	 1.1	 0.9;
	 148	 1	 9.91	 1.25	 0	 0	 8	 1	 0	 138	 1	 1.1	 0.9;
	 149	 1	 11.65	 0.98	 0	 0	 8	 1	 0	 138	 1	 1.1	 0.9;
	 150	 1	 9.84	 1.38	 0	 0	 8	 1	 0	 138	 1	 1.1	 0.9;
	 151	 1	 7.86	 1.48	 0	 0	 8	 1	 0	 69	 1	 1.1	 0.9;
	 152	 1	 7.46	 0.87	 0	 0	 8	 1	 0	 138	 1	 1.1	 0.9;
	 153	 1	 0	 0	 0	 0	 8	 1	 0	 138	 1	 1.1	 0.9;
	 154	 1	 13.85	 1.21	 0	 0	 8	 1	 0	 69	 1	 1.1	 0.9;
	 155	 1	 6.29	 1.04	 0	 0	 8	 1	 0	 138	 1	 1.1	 0.9;
	 156	 1	 11.44	 1.54	 0	 0	 8	 1	 0	 69	 1	 1.1	 0.9;
	 157	 1	 13.3	 2.74	 0	 0	 8	 1	 0	 138	 1	 1.1	 0.9;
	 158	 1	 7.09	 0.93	 0	 0	 8	 1	 0	 69	 1	 1.1	 0.9;
	 159	 1	 0	 0	 0	 0	 8	 1	 0	 138	 1	 1.1	 0.9;
	 160	 1	 4.42	 0.76	 0	 0	 8	 1	 0	 69	 1	 1.1	 0.9;
	 161	 1	 0	 0	 0	 0	 8	 1	 0	 138	 1	 1.1	 0.9;
	 162	 1	 11.35	 1.73	 0	 0	 8	 1	 0	 138	 1	 1.1	 0.9;
	 163	 1	 0	 0	 0	 0	 8	 1	 0	 345	 1	 1.1	 0.9;
	 164	 1	 4.57	 0.76	 0	 27	 8	 1	 0	 345	 1	 1.1	 0.9;
	 165	 1	 17.28	 3.3	 0	 10.1	 8	 1	 0	 345	 1	 1.1	 0.9;
	 166	 1	 0	 0	 0	 0	 8	 1	 0	 138	 1	 1.1	 0.9;
	 167	 1	 0	 0	 0	 0	 8	 1	 0	 138	 1	 1.1	 0.9;
	 168	 1	 8.79	 1.41	 0	 0	 8	 1	 0	 69	 1	 1.1	 0.9;
	 169	 1	 9.35	 1.3	 0	 0	 8	 1	 0	 69	 1	 1.1	 0.9;
	 170	 1	 17.95	 2.5	 0	 0	 8	 1	 0	 69	 1	 1.1	 0.9;
	 171	 1	 6.07	 0.77	 0	 0	 8	 1	 0	 69	 1	 1.1	 0.9;
	 172	 1	 21.03	 2.64	 0	 0	 8	 1	 0	 69	 1	 1.1	 0.9;
	 173	 1	 7.14	 0.65	 0	 0	 8	 1	 0	 69	 1	 1.1	 0.9;
	 174	 1	 5.58	 0.72	 0	 0	 8	 1	 0	 69	 1	 1.1	 0.9;
	 175	 1	 8.07	 1.39	 0	 0	 8	 1	 0	 69	 1	 1.1	 0.9;
	 176	 1	 7.59	 0.91	 0	 0	 8	 1	 0	 69	 1	 1.1	 0.9;
	 177	 1	 0	 0	 0	 0	 8	 1	 0	 138	 1	 1.1	 0.9;
	 178	 1	 6.77	 1.15	 0	 0	 8	 1	 0	 69	 1	 1.1	 0.9;
	 179	 1	 19.29	 3.51	 0	 0	 8	 1	 0	 138	 1	 1.1	 0.9;
	 180	 1	 12.96	 1.42	 0	 0	 8	 1	 0	 138	 1	 1.1	 0.9;
	 181	 1	 0	 0	 0	 0	 8	 1	 0	 138	 1	 1.1	 0.9;
	 182	 1	 23.75	 2.41	 0	 0	 8	 1	 0	 69	 1	 1.1	 0.9;
	 183	 1	 12.49	 1.17	 0	 0	 8	 1	 0	 69	 1	 1.1	 0.9;
	 184	 1	 32.07	 3.4	 0	 0	 8	 1	 0	 69	 1	 1.1	 0.9;
	 185	 1	 15.2	 3.12	 0	 0	 8	 1	 0	 69	 1	 1.1	 0.9;
	 186	 1	 12.24	 2.19	 0	 0	 8	 1	 0	 69	 1	 1.1	 0.9;
	 187	 1	 7.48	 1.46	 0	 0	 8	 1	 0	 69	 1	 1.1	 0.9;
	 188	 1	 9.69	 1.52	 0	 0	 8	 1	 0	 138	 1	 1.1	 0.9;
	 189	 1	 12.37	 0	 0	 0	 8	 1	 0	 69	 1	 1.1	 0.9;
	 190	 1	 2.6	 0	 0	 0	 8	 1	 0	 69	 1	 1.1	 0.9;
	 191	 1	 4.91	 0	 0	 0	 8	 1	 0	 69	 1	 1.1	 0.9;
	 192	 1	 10.21	 0	 0	 0	 8	 1	 0	 69	 1	 1.1	 0.9;
	 193	 1	 13.65	 0	 0	 0	 8	 1	 0	 69	 1	 1.1	 0.9;
	 194	 1	 3.14	 0	 0	 0	 8	 1	 0	 69	 1	 1.1	 0.9;
	 195	 1	 7.69	 0	 0	 0	 8	 1	 0	 69	 1	 1.1	 0.9;
	 196	 1	 4.54	 0	 0	 0	 8	 1	 0	 69	 1	 1.1	 0.9;
	 197	 1	 0	 0	 0	 0	 8	 1	 0	 138	 1	 1.1	 0.9;
	 198	 1	 5.46	 0	 0	 0	 8	 1	 0	 69	 1	 1.1	 0.9;
	 199	 1	 13.27	 0	 0	 0	 8	 1	 0	 69	 1	 1.1	 0.9;
	 200	 1	 0	 0	 0	 0	 8	 1	 0	 138	 1	 1.1	 0.9;
...
];

mpc_regionR2.gen = [
...